
     RDKit          2D

 47 51  0  0  1  0  0  0  0  0999 V2000
    0.7750    0.9958    0.0000 N   0  0  0  0  0  0  0  0  0  0  0  0
    0.7750    0.3458    0.0000 C   0  0  0  0  0  0  0  0  0  0  0  0
    0.1125    0.9958    0.0000 C   0  0  0  0  0  0  0  0  0  0  0  0
    0.1125    0.3458    0.0000 C   0  0  0  0  0  0  0  0  0  0  0  0
    1.3917    1.1958    0.0000 C   0  0  0  0  0  0  0  0  0  0  0  0
    1.3917    0.1375    0.0000 S   0  0  0  0  0  0  0  0  0  0  0  0
    3.7292   -0.9292    0.0000 S   0  0  0  0  0  0  0  0  0  0  0  0
    1.7792    0.6458    0.0000 C   0  0  0  0  0  0  0  0  0  0  0  0
    0.3542   -2.1542    0.0000 N   0  0  0  0  0  0  0  0  0  0  0  0
   -0.6458    0.5583    0.0000 N   0  0  0  0  0  0  0  0  0  0  0  0
   -1.3000    0.9958    0.0000 C   0  0  0  0  0  0  0  0  0  0  0  0
    0.9167   -1.8250    0.0000 C   0  0  0  0  0  0  0  0  0  0  0  0
   -0.1833   -1.1792    0.0000 C   0  0  0  0  0  0  0  0  0  0  0  0
   -0.1833   -1.8250    0.0000 C   0  0  0  0  0  0  0  0  0  0  0  0
   -1.5708   -0.7750    0.0000 C   0  0  0  0  0  0  0  0  0  0  0  0
   -0.8500   -0.8792    0.0000 N   0  0  0  0  0  0  0  0  0  0  0  0
   -1.9208    0.4833    0.0000 C   0  0  0  0  0  0  0  0  0  0  0  0
    1.9417    1.5833    0.0000 C   0  0  0  0  0  0  0  0  0  0  0  0
   -1.8125   -0.2792    0.0000 N   0  0  0  0  0  0  0  0  0  0  0  0
    0.9167   -1.1792    0.0000 N   0  0  0  0  0  0  0  0  0  0  0  0
    3.1375   -1.2542    0.0000 C   0  0  0  0  0  0  0  0  0  0  0  0
   -0.3458    1.4625    0.0000 O   0  0  0  0  0  0  0  0  0  0  0  0
    3.4500   -0.3542    0.0000 O   0  0  0  0  0  0  0  0  0  0  0  0
    4.0125   -1.5042    0.0000 O   0  0  0  0  0  0  0  0  0  0  0  0
    1.5250   -2.1792    0.0000 N   0  0  0  0  0  0  0  0  0  0  0  0
    0.3792   -0.8625    0.0000 C   0  0  0  0  0  0  0  0  0  0  0  0
   -2.5958    0.3500    0.0000 C   0  0  0  0  0  0  0  0  0  0  0  0
   -1.4333    1.7125    0.0000 O   0  0  0  0  0  0  0  0  0  0  0  0
    4.2917   -0.6542    0.0000 N   0  0  0  0  0  0  0  0  0  0  0  0
   -2.0333   -1.2917    0.0000 O   0  0  0  0  0  0  0  0  0  0  0  0
    1.8875    2.2250    0.0000 O   0  0  0  0  0  0  0  0  0  0  0  0
    2.5792   -0.8792    0.0000 C   0  0  0  0  0  0  0  0  0  0  0  0
    3.1375   -1.8417    0.0000 C   0  0  0  0  0  0  0  0  0  0  0  0
   -2.5583    1.0083    0.0000 C   0  0  0  0  0  0  0  0  0  0  0  0
   -3.1583    0.0250    0.0000 C   0  0  0  0  0  0  0  0  0  0  0  0
    2.0375   -1.8417    0.0000 C   0  0  0  0  0  0  0  0  0  0  0  0
   -0.7333   -2.1417    0.0000 O   0  0  0  0  0  0  0  0  0  0  0  0
    2.5292    1.2958    0.0000 O   0  0  0  0  0  0  0  0  0  0  0  0
    2.3167    0.2583    0.0000 C   0  0  0  0  0  0  0  0  0  0  0  0
    2.3500    0.9958    0.0000 C   0  0  0  0  0  0  0  0  0  0  0  0
   -3.7208    1.0500    0.0000 C   0  0  0  0  0  0  0  0  0  0  0  0
    2.0375   -1.2167    0.0000 C   0  0  0  0  0  0  0  0  0  0  0  0
    2.5792   -2.1792    0.0000 C   0  0  0  0  0  0  0  0  0  0  0  0
   -3.1375    1.3625    0.0000 C   0  0  0  0  0  0  0  0  0  0  0  0
   -3.7458    0.3875    0.0000 C   0  0  0  0  0  0  0  0  0  0  0  0
   -4.2708    1.4000    0.0000 O   0  0  0  0  0  0  0  0  0  0  0  0
    0.6129   -0.6410    0.0000 H   0  0  0  0  0  0  0  0  0  0  0  0
  2  1  1  0
  3  1  1  0
  4  3  1  0
  5  1  1  0
  6  2  1  0
  7 21  1  0
  8  5  1  0
  9 14  2  0
  4 10  1  6
 11 10  1  0
 12 20  2  0
 13 16  1  0
 14 13  1  0
 15 19  1  0
 16 15  1  0
 17 11  1  0
  5 18  1  1
 17 19  1  6
 20 26  1  0
 21 33  2  0
 22  3  2  0
 23  7  2  0
 24  7  2  0
 25 12  1  0
 26 13  2  0
 27 17  1  0
 28 11  2  0
 29  7  1  0
 30 15  2  0
 31 18  2  0
 32 42  2  0
 33 43  1  0
 34 27  2  0
 35 27  1  0
 36 25  1  0
 37 14  1  0
 38 18  1  0
 39  8  1  0
 40  8  1  0
 41 45  1  0
 42 36  1  0
 43 36  2  0
 44 34  1  0
 45 35  2  0
 46 41  1  0
  6  8  1  0
  2  4  1  0
 44 41  2  0
  9 12  1  0
 32 21  1  0
  2 47  1  1
M  END

> <chembl_id>
CHEMBL2103982

> <chembl_pref_name>
PIROXICILLIN

$$$$

     RDKit          2D

 37 40  0  0  1  0  0  0  0  0999 V2000
    5.5917   -1.2500    0.0000 N   0  0  0  0  0  0  0  0  0  0  0  0
    5.5917   -1.9292    0.0000 C   0  0  0  0  0  0  0  0  0  0  0  0
    4.9000   -1.2500    0.0000 C   0  0  0  0  0  0  0  0  0  0  0  0
    4.9000   -1.9292    0.0000 C   0  0  0  0  0  0  0  0  0  0  0  0
    6.2542   -1.0292    0.0000 C   0  0  0  0  0  0  0  0  0  0  0  0
    6.2542   -2.1375    0.0000 S   0  0  0  0  0  0  0  0  0  0  0  0
    6.6667   -1.6042    0.0000 C   0  0  0  0  0  0  0  0  0  0  0  0
    4.0750   -1.5167    0.0000 N   0  0  0  0  0  0  0  0  0  0  0  0
    3.5917   -1.9500    0.0000 C   0  0  0  0  0  0  0  0  0  0  0  0
    6.8250   -0.6292    0.0000 C   0  0  0  0  0  0  0  0  0  0  0  0
    2.7625   -1.6250    0.0000 C   0  0  0  0  0  0  0  0  0  0  0  0
    0.6417   -2.1542    0.0000 C   0  0  0  0  0  0  0  0  0  0  0  0
    2.7625   -2.3542    0.0000 N   0  0  0  0  0  0  0  0  0  0  0  0
    2.1542   -2.7125    0.0000 C   0  0  0  0  0  0  0  0  0  0  0  0
    1.0542   -2.8625    0.0000 N   0  0  0  0  0  0  0  0  0  0  0  0
    4.5917   -0.6667    0.0000 O   0  0  0  0  0  0  0  0  0  0  0  0
    0.7667   -1.4417    0.0000 N   0  0  0  0  0  0  0  0  0  0  0  0
    3.7417   -2.7292    0.0000 O   0  0  0  0  0  0  0  0  0  0  0  0
    7.4375   -0.9292    0.0000 O   0  0  0  0  0  0  0  0  0  0  0  0
    6.7542    0.0500    0.0000 O   0  0  0  0  0  0  0  0  0  0  0  0
   -1.3208   -2.1292    0.0000 N   0  0  0  0  0  0  0  0  0  0  0  0
    0.0500   -2.1542    0.0000 C   0  0  0  0  0  0  0  0  0  0  0  0
    2.0625   -1.0042    0.0000 C   0  0  0  0  0  0  0  0  0  0  0  0
    2.1542   -3.4167    0.0000 O   0  0  0  0  0  0  0  0  0  0  0  0
    1.5875   -2.2417    0.0000 C   0  0  0  0  0  0  0  0  0  0  0  0
    7.2167   -2.0042    0.0000 C   0  0  0  0  0  0  0  0  0  0  0  0
    7.2417   -1.2500    0.0000 C   0  0  0  0  0  0  0  0  0  0  0  0
   -0.9833   -2.7417    0.0000 C   0  0  0  0  0  0  0  0  0  0  0  0
   -0.9833   -1.5667    0.0000 C   0  0  0  0  0  0  0  0  0  0  0  0
   -0.3000   -2.7417    0.0000 C   0  0  0  0  0  0  0  0  0  0  0  0
   -0.2833   -1.5667    0.0000 C   0  0  0  0  0  0  0  0  0  0  0  0
    2.2375   -0.3375    0.0000 C   0  0  0  0  0  0  0  0  0  0  0  0
    1.3250   -1.1417    0.0000 C   0  0  0  0  0  0  0  0  0  0  0  0
    0.8667   -0.6792    0.0000 C   0  0  0  0  0  0  0  0  0  0  0  0
    1.7292    0.1125    0.0000 C   0  0  0  0  0  0  0  0  0  0  0  0
    1.0292   -0.0875    0.0000 C   0  0  0  0  0  0  0  0  0  0  0  0
    5.4400   -2.9176    0.0000 H   0  0  0  0  0  0  0  0  0  0  0  0
  2  1  1  0
  3  1  1  0
  4  3  1  0
  5  1  1  0
  6  2  1  0
  7  5  1  0
  4  8  1  6
  9  8  1  0
  5 10  1  1
 11  9  1  0
 12 15  1  0
 11 13  1  6
 14 13  1  0
 15 25  1  0
 16  3  2  0
 17 12  2  0
 18  9  2  0
 19 10  1  0
 20 10  2  0
 21 28  1  0
 22 12  1  0
 11 23  1  0
 24 14  2  0
 25 14  1  0
 26  7  1  0
 27  7  1  0
 28 30  2  0
 29 31  1  0
 30 22  1  0
 31 22  2  0
 32 23  2  0
 33 23  1  0
 34 33  2  0
 35 32  1  0
 36 35  2  0
  6  7  1  0
  2  4  1  0
 34 36  1  0
 29 21  2  0
  2 37  1  1
M  END

> <chembl_id>
CHEMBL2110979

> <chembl_pref_name>
PIRBENICILLIN

$$$$

     RDKit          2D

 40 43  0  0  0  0  0  0  0  0999 V2000
    6.0209    0.0000    0.0000 Na  0  0  0  0  0 15  0  0  0  0  0  0
   -1.2197    2.7030    0.0000 N   0  0  0  0  0  0  0  0  0  0  0  0
   -0.6363    2.1196    0.0000 C   0  0  0  0  0  0  0  0  0  0  0  0
   -1.8030    2.1196    0.0000 C   0  0  0  0  0  0  0  0  0  0  0  0
   -1.2197    1.5363    0.0000 C   0  0  0  0  0  0  0  0  0  0  0  0
   -0.8451    3.4381    0.0000 C   0  0  0  0  0  0  0  0  0  0  0  0
    0.0988    2.4942    0.0000 S   0  0  0  0  0  0  0  0  0  0  0  0
   -0.0303    3.3090    0.0000 C   0  0  0  0  0  0  0  0  0  0  0  0
   -1.2197    0.7113    0.0000 N   0  0  0  0  0  0  0  0  0  0  0  0
   -0.5052    0.2988    0.0000 C   0  0  0  0  0  0  0  0  0  0  0  0
    0.2093   -0.9387    0.0000 N   0  0  0  0  0  0  0  0  0  0  0  0
    0.2093   -1.7637    0.0000 C   0  0  0  0  0  0  0  0  0  0  0  0
    0.9237   -2.1762    0.0000 C   0  0  0  0  0  0  0  0  0  0  0  0
   -0.5052   -0.5262    0.0000 C   0  0  0  0  0  0  0  0  0  0  0  0
   -1.2197    4.1731    0.0000 C   0  0  0  0  0  0  0  0  0  0  0  0
   -2.6280    2.1196    0.0000 O   0  0  0  0  0  0  0  0  0  0  0  0
    0.2093    0.7113    0.0000 O   0  0  0  0  0  0  0  0  0  0  0  0
   -0.7703    4.8650    0.0000 O   0  0  0  0  0  0  0  0  0  0  0  0
   -0.5052   -2.1762    0.0000 O   0  0  0  0  0  0  0  0  0  0  0  0
   -2.0435    4.2163    0.0000 O   0  0  0  0  0  0  0  0  0  0  0  0
   -1.2197   -0.9387    0.0000 C   0  0  0  0  0  0  0  0  0  0  0  0
    0.0129    4.1329    0.0000 C   0  0  0  0  0  0  0  0  0  0  0  0
    0.7936    3.3522    0.0000 C   0  0  0  0  0  0  0  0  0  0  0  0
   -1.9341   -0.5262    0.0000 C   0  0  0  0  0  0  0  0  0  0  0  0
   -1.2197   -1.7637    0.0000 C   0  0  0  0  0  0  0  0  0  0  0  0
   -2.6486   -0.9387    0.0000 C   0  0  0  0  0  0  0  0  0  0  0  0
   -1.9341   -2.1762    0.0000 C   0  0  0  0  0  0  0  0  0  0  0  0
   -2.6486   -1.7637    0.0000 C   0  0  0  0  0  0  0  0  0  0  0  0
    0.2093   -0.1137    0.0000 H   0  0  0  0  0  0  0  0  0  0  0  0
   -0.1514    1.4522    0.0000 H   0  0  0  0  0  0  0  0  0  0  0  0
    0.9237   -3.0013    0.0000 C   0  0  0  0  0  0  0  0  0  0  0  0
    1.6382   -3.4138    0.0000 N   0  0  0  0  0  0  0  0  0  0  0  0
    2.3527   -3.0012    0.0000 C   0  0  0  0  0  0  0  0  0  0  0  0
    2.3527   -2.1762    0.0000 C   0  0  0  0  0  0  0  0  0  0  0  0
    1.6382   -1.7637    0.0000 C   0  0  0  0  0  0  0  0  0  0  0  0
    3.0671   -3.4137    0.0000 C   0  0  0  0  0  0  0  0  0  0  0  0
    3.7816   -3.0012    0.0000 C   0  0  0  0  0  0  0  0  0  0  0  0
    3.7816   -2.1762    0.0000 C   0  0  0  0  0  0  0  0  0  0  0  0
    3.0672   -1.7637    0.0000 N   0  0  0  0  0  0  0  0  0  0  0  0
    1.6382   -0.9387    0.0000 O   0  0  0  0  0  0  0  0  0  0  0  0
  3  2  1  0
  4  2  1  0
  5  4  1  0
  6  2  1  0
  3  7  1  0
  8  6  1  0
  5  9  1  6
 10  9  1  0
 14 11  1  6
 12 11  1  0
 13 12  1  0
 14 10  1  0
  6 15  1  1
 16  4  2  0
 17 10  2  0
 18 15  1  0
 19 12  2  0
 20 15  2  0
 21 14  1  0
 22  8  1  0
 23  8  1  0
 24 21  2  0
 25 21  1  0
 26 24  1  0
 27 25  2  0
 28 26  2  0
 14 29  1  1
  7  8  1  0
  3  5  1  0
 27 28  1  0
  3 30  1  1
 13 31  2  0
 13 35  1  0
 31 32  1  0
 32 33  2  0
 34 35  2  0
 33 36  1  0
 33 34  1  0
 34 39  1  0
 36 37  2  0
 37 38  1  0
 38 39  2  0
 35 40  1  0
M  CHG  2   1   1  18  -1
M  END

> <chembl_id>
CHEMBL3301666

> <chembl_pref_name>
APALCILLIN SODIUM

$$$$

     RDKit          2D

 34 36  0  0  0  0  0  0  0  0999 V2000
    8.8625   -4.4042    0.0000 Na  0  0  0  0  0 15  0  0  0  0  0  0
    5.7250   -4.8292    0.0000 N   0  0  0  0  0  0  0  0  0  0  0  0
    5.7250   -5.5500    0.0000 C   0  0  0  0  0  0  0  0  0  0  0  0
    5.0167   -4.8292    0.0000 C   0  0  0  0  0  0  0  0  0  0  0  0
    5.0167   -5.5500    0.0000 C   0  0  0  0  0  0  0  0  0  0  0  0
    6.4125   -4.6167    0.0000 C   0  0  0  0  0  0  0  0  0  0  0  0
    6.4125   -5.7542    0.0000 S   0  0  0  0  0  0  0  0  0  0  0  0
    6.8167   -5.2000    0.0000 C   0  0  0  0  0  0  0  0  0  0  0  0
    3.8125   -5.8417    0.0000 C   0  0  0  0  0  0  0  0  0  0  0  0
    4.3292   -5.3542    0.0000 N   0  0  0  0  0  0  0  0  0  0  0  0
    2.9792   -4.9542    0.0000 C   0  0  0  0  0  0  0  0  0  0  0  0
    3.1250   -5.6417    0.0000 C   0  0  0  0  0  0  0  0  0  0  0  0
    6.9917   -4.2042    0.0000 C   0  0  0  0  0  0  0  0  0  0  0  0
    3.4917   -4.4750    0.0000 O   0  0  0  0  0  0  0  0  0  0  0  0
    4.5042   -4.3292    0.0000 O   0  0  0  0  0  0  0  0  0  0  0  0
    3.9792   -6.5417    0.0000 O   0  0  0  0  0  0  0  0  0  0  0  0
    2.2917   -4.7667    0.0000 O   0  0  0  0  0  0  0  0  0  0  0  0
    7.6500   -4.4917    0.0000 O   0  0  0  0  0  0  0  0  0  0  0  0
    2.6292   -6.1292    0.0000 C   0  0  0  0  0  0  0  0  0  0  0  0
    6.9250   -3.4792    0.0000 O   0  0  0  0  0  0  0  0  0  0  0  0
    3.3042   -3.7875    0.0000 C   0  0  0  0  0  0  0  0  0  0  0  0
    7.4250   -4.8292    0.0000 C   0  0  0  0  0  0  0  0  0  0  0  0
    7.4042   -5.6125    0.0000 C   0  0  0  0  0  0  0  0  0  0  0  0
    1.9667   -5.9292    0.0000 C   0  0  0  0  0  0  0  0  0  0  0  0
    2.8042   -6.8167    0.0000 C   0  0  0  0  0  0  0  0  0  0  0  0
    2.6292   -3.5917    0.0000 C   0  0  0  0  0  0  0  0  0  0  0  0
    3.8292   -3.2917    0.0000 C   0  0  0  0  0  0  0  0  0  0  0  0
    1.4417   -6.4292    0.0000 C   0  0  0  0  0  0  0  0  0  0  0  0
    2.3125   -7.2917    0.0000 C   0  0  0  0  0  0  0  0  0  0  0  0
    2.4667   -2.9042    0.0000 C   0  0  0  0  0  0  0  0  0  0  0  0
    3.6542   -2.6125    0.0000 C   0  0  0  0  0  0  0  0  0  0  0  0
    2.9792   -2.4250    0.0000 C   0  0  0  0  0  0  0  0  0  0  0  0
    1.6167   -7.1167    0.0000 C   0  0  0  0  0  0  0  0  0  0  0  0
    5.5811   -6.5396    0.0000 H   0  0  0  0  0  0  0  0  0  0  0  0
  3  2  1  0
  4  2  1  0
  5  4  1  0
  6  2  1  0
  7  3  1  0
  8  6  1  0
  9 10  1  0
  5 10  1  6
 11 12  1  0
 12  9  1  0
  6 13  1  1
 14 11  1  0
 15  4  2  0
 16  9  2  0
 17 11  2  0
 18 13  1  0
 19 12  1  0
 20 13  2  0
 21 14  1  0
 22  8  1  0
 23  8  1  0
 24 19  1  0
 25 19  2  0
 26 21  1  0
 27 21  2  0
 28 24  2  0
 29 25  1  0
 30 26  2  0
 31 27  1  0
 32 30  1  0
 33 28  1  0
  7  8  1  0
  3  5  1  0
 29 33  2  0
 31 32  2  0
  3 34  1  1
M  CHG  2   1   1  18  -1
M  END

> <chembl_id>
CHEMBL2105996

> <chembl_pref_name>
CARBENICILLIN PHENYL SODIUM

$$$$

     RDKit          2D

 30 32  0  0  1  0  0  0  0  0999 V2000
    1.8375    0.9708    0.0000 N   0  0  0  0  0  0  0  0  0  0  0  0
    2.1667    0.0583    0.0000 C   0  0  0  0  0  0  0  0  0  0  0  0
    0.9375    0.6333    0.0000 C   0  0  0  0  0  0  0  0  0  0  0  0
    1.2542   -0.2750    0.0000 C   0  0  0  0  0  0  0  0  0  0  0  0
    2.6042    1.5500    0.0000 C   0  0  0  0  0  0  0  0  0  0  0  0
    3.1292    0.1000    0.0000 S   0  0  0  0  0  0  0  0  0  0  0  0
    3.4125    1.0000    0.0000 C   0  0  0  0  0  0  0  0  0  0  0  0
    0.3292   -0.5667    0.0000 N   0  0  0  0  0  0  0  0  0  0  0  0
   -0.5958   -0.4542    0.0000 C   0  0  0  0  0  0  0  0  0  0  0  0
   -2.8000   -1.3542    0.0000 C   0  0  0  0  0  0  0  0  0  0  0  0
    3.1542    2.3583    0.0000 C   0  0  0  0  0  0  0  0  0  0  0  0
   -3.1000   -1.9125    0.0000 C   0  0  0  0  0  0  0  0  0  0  0  0
   -1.9583   -1.5875    0.0000 O   0  0  0  0  0  0  0  0  0  0  0  0
   -1.2583   -1.0417    0.0000 C   0  0  0  0  0  0  0  0  0  0  0  0
    0.0917    1.0500    0.0000 O   0  0  0  0  0  0  0  0  0  0  0  0
   -4.0583   -1.9000    0.0000 O   0  0  0  0  0  0  0  0  0  0  0  0
   -0.8875    0.3500    0.0000 O   0  0  0  0  0  0  0  0  0  0  0  0
   -2.8333   -2.7917    0.0000 C   0  0  0  0  0  0  0  0  0  0  0  0
   -3.0458   -0.4792    0.0000 O   0  0  0  0  0  0  0  0  0  0  0  0
    2.7625    3.2125    0.0000 O   0  0  0  0  0  0  0  0  0  0  0  0
   -4.3458   -2.7917    0.0000 C   0  0  0  0  0  0  0  0  0  0  0  0
   -0.5458   -2.1000    0.0000 C   0  0  0  0  0  0  0  0  0  0  0  0
   -3.6250   -3.3167    0.0000 C   0  0  0  0  0  0  0  0  0  0  0  0
    4.1167    2.2500    0.0000 O   0  0  0  0  0  0  0  0  0  0  0  0
    4.0167    1.7500    0.0000 C   0  0  0  0  0  0  0  0  0  0  0  0
    4.3417    0.7250    0.0000 C   0  0  0  0  0  0  0  0  0  0  0  0
   -0.7750   -1.1792    0.0000 C   0  0  0  0  0  0  0  0  0  0  0  0
   -1.7125   -0.8667    0.0000 C   0  0  0  0  0  0  0  0  0  0  0  0
   -0.0625   -0.5167    0.0000 C   0  0  0  0  0  0  0  0  0  0  0  0
    2.3622   -0.9224    0.0000 H   0  0  0  0  0  0  0  0  0  0  0  0
  2  1  1  0
  3  1  1  0
  4  3  1  0
  5  1  1  0
  6  2  1  0
  7  5  1  0
  4  8  1  6
  9  8  1  0
 10 13  1  0
  5 11  1  1
 12 10  1  0
 14 13  1  1
 14  9  1  0
 15  3  2  0
 16 12  1  0
 17  9  2  0
 18 12  2  0
 19 10  2  0
 20 11  2  0
 21 16  1  0
 14 22  1  0
 23 18  1  0
 24 11  1  0
 25  7  1  0
 26  7  1  0
 27 22  1  0
 28 27  1  0
 29 27  1  0
  6  7  1  0
  2  4  1  0
 23 21  2  0
  2 30  1  1
M  END

> <chembl_id>
CHEMBL2105074

> <chembl_pref_name>
FURBUCILLIN

$$$$

     RDKit          2D

 78 85  0  0  0  0  0  0  0  0999 V2000
    6.7480   -3.6981    0.0000 N   0  0  0  0  0  0  0  0  0  0  0  0
    6.7480   -4.5231    0.0000 C   0  0  0  0  0  0  0  0  0  0  0  0
    5.9230   -3.6981    0.0000 C   0  0  0  0  0  0  0  0  0  0  0  0
    5.9230   -4.5231    0.0000 C   0  0  0  0  0  0  0  0  0  0  0  0
    3.9594   -5.4763    0.0000 C   0  0  0  0  0  0  0  0  0  0  0  0
    3.1445   -5.3472    0.0000 C   0  0  0  0  0  0  0  0  0  0  0  0
    7.5326   -3.4431    0.0000 C   0  0  0  0  0  0  0  0  0  0  0  0
    7.5326   -4.7780    0.0000 S   0  0  0  0  0  0  0  0  0  0  0  0
    4.5427   -4.8929    0.0000 C   0  0  0  0  0  0  0  0  0  0  0  0
    2.7700   -6.0823    0.0000 N   0  0  0  0  0  0  0  0  0  0  0  0
    8.0175   -4.1106    0.0000 C   0  0  0  0  0  0  0  0  0  0  0  0
    5.3396   -5.1064    0.0000 N   0  0  0  0  0  0  0  0  0  0  0  0
    2.7700   -4.6121    0.0000 C   0  0  0  0  0  0  0  0  0  0  0  0
    3.3533   -6.6657    0.0000 O   0  0  0  0  0  0  0  0  0  0  0  0
    4.0884   -6.2911    0.0000 C   0  0  0  0  0  0  0  0  0  0  0  0
    7.7875   -2.6585    0.0000 C   0  0  0  0  0  0  0  0  0  0  0  0
    5.3396   -3.1147    0.0000 O   0  0  0  0  0  0  0  0  0  0  0  0
    4.3292   -4.0960    0.0000 O   0  0  0  0  0  0  0  0  0  0  0  0
    1.9461   -4.5690    0.0000 C   0  0  0  0  0  0  0  0  0  0  0  0
    8.5945   -2.4870    0.0000 O   0  0  0  0  0  0  0  0  0  0  0  0
    7.2355   -2.0454    0.0000 O   0  0  0  0  0  0  0  0  0  0  0  0
    1.4968   -5.2609    0.0000 Cl  0  0  0  0  0  0  0  0  0  0  0  0
    8.6306   -3.5585    0.0000 C   0  0  0  0  0  0  0  0  0  0  0  0
    8.6306   -4.6626    0.0000 C   0  0  0  0  0  0  0  0  0  0  0  0
    3.2193   -3.9202    0.0000 C   0  0  0  0  0  0  0  0  0  0  0  0
    4.8235   -6.6657    0.0000 C   0  0  0  0  0  0  0  0  0  0  0  0
    1.5716   -3.8339    0.0000 C   0  0  0  0  0  0  0  0  0  0  0  0
    2.8448   -3.1852    0.0000 C   0  0  0  0  0  0  0  0  0  0  0  0
    2.0209   -3.1420    0.0000 C   0  0  0  0  0  0  0  0  0  0  0  0
    6.6189   -5.3379    0.0000 H   0  0  0  0  0  0  0  0  0  0  0  0
    1.6319    0.6948    0.0000 N   0  0  0  0  0  0  0  0  0  0  0  0
    1.6319   -0.1302    0.0000 C   0  0  0  0  0  0  0  0  0  0  0  0
    0.8069    0.6948    0.0000 C   0  0  0  0  0  0  0  0  0  0  0  0
    0.8069   -0.1302    0.0000 C   0  0  0  0  0  0  0  0  0  0  0  0
   -1.1567   -1.0834    0.0000 C   0  0  0  0  0  0  0  0  0  0  0  0
   -1.9715   -0.9544    0.0000 C   0  0  0  0  0  0  0  0  0  0  0  0
    2.4165    0.9497    0.0000 C   0  0  0  0  0  0  0  0  0  0  0  0
    2.4165   -0.3852    0.0000 S   0  0  0  0  0  0  0  0  0  0  0  0
   -0.5733   -0.5001    0.0000 C   0  0  0  0  0  0  0  0  0  0  0  0
   -2.3461   -1.6894    0.0000 N   0  0  0  0  0  0  0  0  0  0  0  0
    2.9015    0.2823    0.0000 C   0  0  0  0  0  0  0  0  0  0  0  0
    0.2235   -0.7136    0.0000 N   0  0  0  0  0  0  0  0  0  0  0  0
   -2.3461   -0.2193    0.0000 C   0  0  0  0  0  0  0  0  0  0  0  0
   -1.7627   -2.2728    0.0000 O   0  0  0  0  0  0  0  0  0  0  0  0
   -1.0276   -1.8983    0.0000 C   0  0  0  0  0  0  0  0  0  0  0  0
    2.6715    1.7343    0.0000 C   0  0  0  0  0  0  0  0  0  0  0  0
    0.2235    1.2781    0.0000 O   0  0  0  0  0  0  0  0  0  0  0  0
   -0.7869    0.2968    0.0000 O   0  0  0  0  0  0  0  0  0  0  0  0
   -3.1700   -0.1761    0.0000 C   0  0  0  0  0  0  0  0  0  0  0  0
    3.4784    1.9059    0.0000 O   0  0  0  0  0  0  0  0  0  0  0  0
    2.1194    2.3474    0.0000 O   0  0  0  0  0  0  0  0  0  0  0  0
   -3.6193   -0.8680    0.0000 Cl  0  0  0  0  0  0  0  0  0  0  0  0
    3.5145    0.8343    0.0000 C   0  0  0  0  0  0  0  0  0  0  0  0
    3.5145   -0.2698    0.0000 C   0  0  0  0  0  0  0  0  0  0  0  0
   -1.8968    0.4726    0.0000 C   0  0  0  0  0  0  0  0  0  0  0  0
   -0.2926   -2.2728    0.0000 C   0  0  0  0  0  0  0  0  0  0  0  0
   -3.5445    0.5590    0.0000 C   0  0  0  0  0  0  0  0  0  0  0  0
   -2.2713    1.2077    0.0000 C   0  0  0  0  0  0  0  0  0  0  0  0
   -3.0952    1.2509    0.0000 C   0  0  0  0  0  0  0  0  0  0  0  0
    1.5029   -0.9451    0.0000 H   0  0  0  0  0  0  0  0  0  0  0  0
    8.4939   -0.2063    0.0000 N   0  0  0  0  0  0  0  0  0  0  0  0
   10.6373    0.2063    0.0000 N   0  0  0  0  0  0  0  0  0  0  0  0
    7.0649   -0.2063    0.0000 C   0  0  0  0  0  0  0  0  0  0  0  0
   12.0662    0.2063    0.0000 C   0  0  0  0  0  0  0  0  0  0  0  0
   11.3517   -0.2063    0.0000 C   0  0  0  0  0  0  0  0  0  0  0  0
    7.7794    0.2063    0.0000 C   0  0  0  0  0  0  0  0  0  0  0  0
    9.9228   -0.2063    0.0000 C   0  0  0  0  0  0  0  0  0  0  0  0
    9.2083    0.2063    0.0000 C   0  0  0  0  0  0  0  0  0  0  0  0
    6.3504    0.2063    0.0000 C   0  0  0  0  0  0  0  0  0  0  0  0
    7.0649   -1.0313    0.0000 C   0  0  0  0  0  0  0  0  0  0  0  0
   12.7807   -0.2063    0.0000 C   0  0  0  0  0  0  0  0  0  0  0  0
   12.0662    1.0313    0.0000 C   0  0  0  0  0  0  0  0  0  0  0  0
    6.3504   -1.4438    0.0000 C   0  0  0  0  0  0  0  0  0  0  0  0
    5.6360   -0.2063    0.0000 C   0  0  0  0  0  0  0  0  0  0  0  0
   13.4952    0.2063    0.0000 C   0  0  0  0  0  0  0  0  0  0  0  0
   12.7807    1.4438    0.0000 C   0  0  0  0  0  0  0  0  0  0  0  0
    5.6360   -1.0313    0.0000 C   0  0  0  0  0  0  0  0  0  0  0  0
   13.4952    1.0313    0.0000 C   0  0  0  0  0  0  0  0  0  0  0  0
  2  1  1  0
  3  1  1  0
  4  3  1  0
  5  9  1  0
  6  5  1  0
  7  1  1  0
  8  2  1  0
  9 12  1  0
 10  6  2  0
 11  7  1  0
  4 12  1  6
 13  6  1  0
 14 15  1  0
 15  5  2  0
  7 16  1  1
 17  3  2  0
 18  9  2  0
 19 13  2  0
 20 16  1  0
 21 16  2  0
 22 19  1  0
 23 11  1  0
 24 11  1  0
 25 13  1  0
 26 15  1  0
 27 19  1  0
 28 25  2  0
 29 28  1  0
  8 11  1  0
  2  4  1  0
 10 14  1  0
 27 29  2  0
  2 30  1  1
 32 31  1  0
 33 31  1  0
 34 33  1  0
 35 39  1  0
 36 35  1  0
 37 31  1  0
 38 32  1  0
 39 42  1  0
 40 36  2  0
 41 37  1  0
 34 42  1  6
 43 36  1  0
 44 45  1  0
 45 35  2  0
 37 46  1  1
 47 33  2  0
 48 39  2  0
 49 43  2  0
 50 46  1  0
 51 46  2  0
 52 49  1  0
 53 41  1  0
 54 41  1  0
 55 43  1  0
 56 45  1  0
 57 49  1  0
 58 55  2  0
 59 58  1  0
 38 41  1  0
 32 34  1  0
 40 44  1  0
 57 59  2  0
 32 60  1  1
 62 67  1  0
 63 66  1  0
 64 65  1  0
 65 62  1  0
 66 61  1  0
 67 68  1  0
 68 61  1  0
 69 63  2  0
 70 63  1  0
 71 64  1  0
 72 64  2  0
 73 70  2  0
 74 69  1  0
 75 71  2  0
 76 72  1  0
 77 73  1  0
 78 75  1  0
 77 74  2  0
 76 78  2  0
M  END

> <chembl_id>
CHEMBL3989531

> <chembl_pref_name>
CLOXACILLIN BENZATHINE

$$$$

     RDKit          2D

 38 40  0  0  0  0  0  0  0  0999 V2000
    8.3000   -0.9667    0.0000 Na  0  0  0  0  0 15  0  0  0  0  0  0
    5.5917   -1.2500    0.0000 N   0  0  0  0  0  0  0  0  0  0  0  0
    5.5917   -1.9292    0.0000 C   0  0  0  0  0  0  0  0  0  0  0  0
    4.9000   -1.2500    0.0000 C   0  0  0  0  0  0  0  0  0  0  0  0
    4.9000   -1.9292    0.0000 C   0  0  0  0  0  0  0  0  0  0  0  0
    6.2542   -1.0292    0.0000 C   0  0  0  0  0  0  0  0  0  0  0  0
    6.2542   -2.1375    0.0000 S   0  0  0  0  0  0  0  0  0  0  0  0
    6.6667   -1.6042    0.0000 C   0  0  0  0  0  0  0  0  0  0  0  0
    4.0750   -1.5167    0.0000 N   0  0  0  0  0  0  0  0  0  0  0  0
    3.5917   -1.9500    0.0000 C   0  0  0  0  0  0  0  0  0  0  0  0
    6.8250   -0.6292    0.0000 C   0  0  0  0  0  0  0  0  0  0  0  0
    2.7625   -1.6250    0.0000 C   0  0  0  0  0  0  0  0  0  0  0  0
    0.6417   -2.1542    0.0000 C   0  0  0  0  0  0  0  0  0  0  0  0
    2.7625   -2.3542    0.0000 N   0  0  0  0  0  0  0  0  0  0  0  0
    2.1542   -2.7125    0.0000 C   0  0  0  0  0  0  0  0  0  0  0  0
    1.0542   -2.8625    0.0000 N   0  0  0  0  0  0  0  0  0  0  0  0
    4.5917   -0.6667    0.0000 O   0  0  0  0  0  0  0  0  0  0  0  0
    0.7667   -1.4417    0.0000 N   0  0  0  0  0  0  0  0  0  0  0  0
    3.7417   -2.7292    0.0000 O   0  0  0  0  0  0  0  0  0  0  0  0
    7.4375   -0.9292    0.0000 O   0  0  0  0  0  0  0  0  0  0  0  0
    6.7542    0.0500    0.0000 O   0  0  0  0  0  0  0  0  0  0  0  0
   -1.3208   -2.1292    0.0000 N   0  0  0  0  0  0  0  0  0  0  0  0
    0.0500   -2.1542    0.0000 C   0  0  0  0  0  0  0  0  0  0  0  0
    2.0625   -1.0042    0.0000 C   0  0  0  0  0  0  0  0  0  0  0  0
    2.1542   -3.4167    0.0000 O   0  0  0  0  0  0  0  0  0  0  0  0
    1.5875   -2.2417    0.0000 C   0  0  0  0  0  0  0  0  0  0  0  0
    7.2167   -2.0042    0.0000 C   0  0  0  0  0  0  0  0  0  0  0  0
    7.2417   -1.2500    0.0000 C   0  0  0  0  0  0  0  0  0  0  0  0
   -0.9833   -2.7417    0.0000 C   0  0  0  0  0  0  0  0  0  0  0  0
   -0.9833   -1.5667    0.0000 C   0  0  0  0  0  0  0  0  0  0  0  0
   -0.3000   -2.7417    0.0000 C   0  0  0  0  0  0  0  0  0  0  0  0
   -0.2833   -1.5667    0.0000 C   0  0  0  0  0  0  0  0  0  0  0  0
    2.2375   -0.3375    0.0000 C   0  0  0  0  0  0  0  0  0  0  0  0
    1.3250   -1.1417    0.0000 C   0  0  0  0  0  0  0  0  0  0  0  0
    0.8667   -0.6792    0.0000 C   0  0  0  0  0  0  0  0  0  0  0  0
    1.7292    0.1125    0.0000 C   0  0  0  0  0  0  0  0  0  0  0  0
    1.0292   -0.0875    0.0000 C   0  0  0  0  0  0  0  0  0  0  0  0
    5.4400   -2.9176    0.0000 H   0  0  0  0  0  0  0  0  0  0  0  0
  3  2  1  0
  4  2  1  0
  5  4  1  0
  6  2  1  0
  7  3  1  0
  8  6  1  0
  5  9  1  6
 10  9  1  0
  6 11  1  1
 12 10  1  0
 13 16  1  0
 12 14  1  6
 15 14  1  0
 16 26  1  0
 17  4  2  0
 18 13  2  0
 19 10  2  0
 20 11  1  0
 21 11  2  0
 22 29  1  0
 23 13  1  0
 12 24  1  0
 25 15  2  0
 26 15  1  0
 27  8  1  0
 28  8  1  0
 29 31  2  0
 30 32  1  0
 31 23  1  0
 32 23  2  0
 33 24  2  0
 34 24  1  0
 35 34  2  0
 36 33  1  0
 37 36  2  0
  7  8  1  0
  3  5  1  0
 35 37  1  0
 30 22  2  0
  3 38  1  1
M  CHG  2   1   1  20  -1
M  END

> <chembl_id>
CHEMBL2106916

> <chembl_pref_name>
PIRBENICILLIN SODIUM

$$$$

     RDKit          2D

 68 73  0  0  0  0  0  0  0  0999 V2000
    3.4652   -4.5506    0.0000 N   0  0  0  0  0  0  0  0  0  0  0  0
    5.6061   -4.9688    0.0000 N   0  0  0  0  0  0  0  0  0  0  0  0
    2.0413   -4.5506    0.0000 C   0  0  0  0  0  0  0  0  0  0  0  0
    7.0300   -4.9688    0.0000 C   0  0  0  0  0  0  0  0  0  0  0  0
    1.3243   -4.9688    0.0000 C   0  0  0  0  0  0  0  0  0  0  0  0
    7.7470   -4.5506    0.0000 C   0  0  0  0  0  0  0  0  0  0  0  0
    2.0413   -3.7341    0.0000 C   0  0  0  0  0  0  0  0  0  0  0  0
    7.0300   -5.7953    0.0000 C   0  0  0  0  0  0  0  0  0  0  0  0
    2.7582   -4.9688    0.0000 C   0  0  0  0  0  0  0  0  0  0  0  0
    6.3131   -4.5506    0.0000 C   0  0  0  0  0  0  0  0  0  0  0  0
    0.6174   -4.5506    0.0000 C   0  0  0  0  0  0  0  0  0  0  0  0
    8.4639   -4.9688    0.0000 C   0  0  0  0  0  0  0  0  0  0  0  0
    1.3243   -3.3258    0.0000 C   0  0  0  0  0  0  0  0  0  0  0  0
    7.7470   -6.2035    0.0000 C   0  0  0  0  0  0  0  0  0  0  0  0
    0.6174   -3.7341    0.0000 C   0  0  0  0  0  0  0  0  0  0  0  0
    8.4639   -5.7953    0.0000 C   0  0  0  0  0  0  0  0  0  0  0  0
    4.1722   -4.9688    0.0000 C   0  0  0  0  0  0  0  0  0  0  0  0
    4.8891   -4.5506    0.0000 C   0  0  0  0  0  0  0  0  0  0  0  0
    6.0243   -7.2192    0.0000 S   0  0  0  0  0  0  0  0  0  0  0  0
    3.8237   -8.8722    0.0000 O   0  0  0  0  0  0  0  0  0  0  0  0
    7.0897   -9.5194    0.0000 O   0  0  0  0  0  0  0  0  0  0  0  0
    5.7256   -9.9575    0.0000 O   0  0  0  0  0  0  0  0  0  0  0  0
    2.7184   -6.2832    0.0000 O   0  0  0  0  0  0  0  0  0  0  0  0
    5.2476   -8.3046    0.0000 N   0  0  0  0  0  0  0  0  0  0  0  0
    3.4055   -7.4781    0.0000 N   0  0  0  0  0  0  0  0  0  0  0  0
    5.2476   -7.4781    0.0000 C   0  0  0  0  0  0  0  0  0  0  0  0
    4.4212   -7.4781    0.0000 C   0  0  0  0  0  0  0  0  0  0  0  0
    4.4212   -8.3046    0.0000 C   0  0  0  0  0  0  0  0  0  0  0  0
    6.0243   -8.5635    0.0000 C   0  0  0  0  0  0  0  0  0  0  0  0
    6.5122   -7.8963    0.0000 C   0  0  0  0  0  0  0  0  0  0  0  0
    6.2832   -9.3501    0.0000 C   0  0  0  0  0  0  0  0  0  0  0  0
    7.2292   -7.4781    0.0000 C   0  0  0  0  0  0  0  0  0  0  0  0
    7.2292   -8.3046    0.0000 C   0  0  0  0  0  0  0  0  0  0  0  0
    2.7184   -7.0798    0.0000 C   0  0  0  0  0  0  0  0  0  0  0  0
    2.0413   -7.4781    0.0000 C   0  0  0  0  0  0  0  0  0  0  0  0
    1.3642   -7.0798    0.0000 C   0  0  0  0  0  0  0  0  0  0  0  0
    0.6871   -7.4781    0.0000 C   0  0  0  0  0  0  0  0  0  0  0  0
    1.3642   -6.2832    0.0000 C   0  0  0  0  0  0  0  0  0  0  0  0
    0.0000   -7.0798    0.0000 C   0  0  0  0  0  0  0  0  0  0  0  0
    0.6871   -5.8948    0.0000 C   0  0  0  0  0  0  0  0  0  0  0  0
    0.0000   -6.2832    0.0000 C   0  0  0  0  0  0  0  0  0  0  0  0
    5.2476   -6.6616    0.0000 H   0  0  0  0  0  0  0  0  0  0  0  0
    4.4212   -6.6616    0.0000 H   0  0  0  0  0  0  0  0  0  0  0  0
    6.3430   -1.3243    0.0000 S   0  0  0  0  0  0  0  0  0  0  0  0
    4.1523   -2.9873    0.0000 O   0  0  0  0  0  0  0  0  0  0  0  0
    7.4183   -3.6345    0.0000 O   0  0  0  0  0  0  0  0  0  0  0  0
    6.0542   -4.0627    0.0000 O   0  0  0  0  0  0  0  0  0  0  0  0
    3.0470   -0.3983    0.0000 O   0  0  0  0  0  0  0  0  0  0  0  0
    5.5762   -2.4097    0.0000 N   0  0  0  0  0  0  0  0  0  0  0  0
    3.7341   -1.5833    0.0000 N   0  0  0  0  0  0  0  0  0  0  0  0
    5.5762   -1.5833    0.0000 C   0  0  0  0  0  0  0  0  0  0  0  0
    4.7497   -1.5833    0.0000 C   0  0  0  0  0  0  0  0  0  0  0  0
    4.7497   -2.4097    0.0000 C   0  0  0  0  0  0  0  0  0  0  0  0
    6.3430   -2.6686    0.0000 C   0  0  0  0  0  0  0  0  0  0  0  0
    6.8409   -2.0015    0.0000 C   0  0  0  0  0  0  0  0  0  0  0  0
    6.6118   -3.4652    0.0000 C   0  0  0  0  0  0  0  0  0  0  0  0
    7.5578   -1.5833    0.0000 C   0  0  0  0  0  0  0  0  0  0  0  0
    7.5578   -2.4097    0.0000 C   0  0  0  0  0  0  0  0  0  0  0  0
    3.0470   -1.1949    0.0000 C   0  0  0  0  0  0  0  0  0  0  0  0
    2.3699   -1.5833    0.0000 C   0  0  0  0  0  0  0  0  0  0  0  0
    1.6928   -1.1949    0.0000 C   0  0  0  0  0  0  0  0  0  0  0  0
    1.0157   -1.5833    0.0000 C   0  0  0  0  0  0  0  0  0  0  0  0
    1.6928   -0.3983    0.0000 C   0  0  0  0  0  0  0  0  0  0  0  0
    0.3286   -1.1949    0.0000 C   0  0  0  0  0  0  0  0  0  0  0  0
    1.0157    0.0000    0.0000 C   0  0  0  0  0  0  0  0  0  0  0  0
    0.3286   -0.3983    0.0000 C   0  0  0  0  0  0  0  0  0  0  0  0
    5.5762   -0.7767    0.0000 H   0  0  0  0  0  0  0  0  0  0  0  0
    4.7497   -0.7767    0.0000 H   0  0  0  0  0  0  0  0  0  0  0  0
  1  9  1  0
  1 17  1  0
  2 10  1  0
  2 18  1  0
  3  5  2  0
  3  7  1  0
  3  9  1  0
  4  6  2  0
  4  8  1  0
  4 10  1  0
  5 11  1  0
  6 12  1  0
  7 13  2  0
  8 14  2  0
 11 15  2  0
 12 16  2  0
 13 15  1  0
 14 16  1  0
 17 18  1  0
 19 26  1  0
 19 30  1  0
 20 28  2  0
 21 31  2  0
 22 31  1  0
 23 34  2  0
 24 26  1  0
 24 28  1  0
 24 29  1  0
 27 25  1  1
 25 34  1  0
 26 27  1  0
 26 42  1  6
 27 28  1  0
 27 43  1  6
 29 30  1  0
 29 31  1  6
 30 32  1  0
 30 33  1  0
 34 35  1  0
 35 36  1  0
 36 37  2  0
 36 38  1  0
 37 39  1  0
 38 40  2  0
 39 41  2  0
 40 41  1  0
 44 51  1  0
 44 55  1  0
 45 53  2  0
 46 56  2  0
 47 56  1  0
 48 59  2  0
 49 51  1  0
 49 53  1  0
 49 54  1  0
 52 50  1  1
 50 59  1  0
 51 52  1  0
 51 67  1  6
 52 53  1  0
 52 68  1  6
 54 55  1  0
 54 56  1  6
 55 57  1  0
 55 58  1  0
 59 60  1  0
 60 61  1  0
 61 62  2  0
 61 63  1  0
 62 64  1  0
 63 65  2  0
 64 66  2  0
 65 66  1  0
M  END

> <chembl_id>
CHEMBL3182097

> <chembl_pref_name>
None

$$$$

     RDKit          2D

 39 43  0  0  1  0  0  0  0  0999 V2000
   -1.2197    2.7030    0.0000 N   0  0  0  0  0  0  0  0  0  0  0  0
   -0.6363    2.1196    0.0000 C   0  0  0  0  0  0  0  0  0  0  0  0
   -1.8030    2.1196    0.0000 C   0  0  0  0  0  0  0  0  0  0  0  0
   -1.2197    1.5363    0.0000 C   0  0  0  0  0  0  0  0  0  0  0  0
   -0.8451    3.4381    0.0000 C   0  0  0  0  0  0  0  0  0  0  0  0
    0.0988    2.4942    0.0000 S   0  0  0  0  0  0  0  0  0  0  0  0
   -0.0303    3.3090    0.0000 C   0  0  0  0  0  0  0  0  0  0  0  0
   -1.2197    0.7113    0.0000 N   0  0  0  0  0  0  0  0  0  0  0  0
   -0.5052    0.2988    0.0000 C   0  0  0  0  0  0  0  0  0  0  0  0
    0.2093   -0.9387    0.0000 N   0  0  0  0  0  0  0  0  0  0  0  0
    0.2093   -1.7637    0.0000 C   0  0  0  0  0  0  0  0  0  0  0  0
    0.9237   -2.1762    0.0000 C   0  0  0  0  0  0  0  0  0  0  0  0
   -0.5052   -0.5262    0.0000 C   0  0  0  0  0  0  0  0  0  0  0  0
   -1.2197    4.1731    0.0000 C   0  0  0  0  0  0  0  0  0  0  0  0
   -2.6280    2.1196    0.0000 O   0  0  0  0  0  0  0  0  0  0  0  0
    0.2093    0.7113    0.0000 O   0  0  0  0  0  0  0  0  0  0  0  0
   -0.7703    4.8650    0.0000 O   0  0  0  0  0  0  0  0  0  0  0  0
   -0.5052   -2.1762    0.0000 O   0  0  0  0  0  0  0  0  0  0  0  0
   -2.0435    4.2163    0.0000 O   0  0  0  0  0  0  0  0  0  0  0  0
   -1.2197   -0.9387    0.0000 C   0  0  0  0  0  0  0  0  0  0  0  0
    0.0129    4.1329    0.0000 C   0  0  0  0  0  0  0  0  0  0  0  0
    0.7936    3.3522    0.0000 C   0  0  0  0  0  0  0  0  0  0  0  0
   -1.9341   -0.5262    0.0000 C   0  0  0  0  0  0  0  0  0  0  0  0
   -1.2197   -1.7637    0.0000 C   0  0  0  0  0  0  0  0  0  0  0  0
   -2.6486   -0.9387    0.0000 C   0  0  0  0  0  0  0  0  0  0  0  0
   -1.9341   -2.1762    0.0000 C   0  0  0  0  0  0  0  0  0  0  0  0
   -2.6486   -1.7637    0.0000 C   0  0  0  0  0  0  0  0  0  0  0  0
    0.2093   -0.1137    0.0000 H   0  0  0  0  0  0  0  0  0  0  0  0
   -0.1514    1.4522    0.0000 H   0  0  0  0  0  0  0  0  0  0  0  0
    0.9237   -3.0013    0.0000 C   0  0  0  0  0  0  0  0  0  0  0  0
    1.6382   -3.4138    0.0000 N   0  0  0  0  0  0  0  0  0  0  0  0
    2.3527   -3.0012    0.0000 C   0  0  0  0  0  0  0  0  0  0  0  0
    2.3527   -2.1762    0.0000 C   0  0  0  0  0  0  0  0  0  0  0  0
    1.6382   -1.7637    0.0000 C   0  0  0  0  0  0  0  0  0  0  0  0
    3.0671   -3.4137    0.0000 C   0  0  0  0  0  0  0  0  0  0  0  0
    3.7816   -3.0012    0.0000 C   0  0  0  0  0  0  0  0  0  0  0  0
    3.7816   -2.1762    0.0000 C   0  0  0  0  0  0  0  0  0  0  0  0
    3.0672   -1.7637    0.0000 N   0  0  0  0  0  0  0  0  0  0  0  0
    1.6382   -0.9387    0.0000 O   0  0  0  0  0  0  0  0  0  0  0  0
  2  1  1  0
  3  1  1  0
  4  3  1  0
  5  1  1  0
  2  6  1  0
  7  5  1  0
  4  8  1  6
  9  8  1  0
 13 10  1  6
 11 10  1  0
 12 11  1  0
 13  9  1  0
  5 14  1  1
 15  3  2  0
 16  9  2  0
 17 14  1  0
 18 11  2  0
 19 14  2  0
 20 13  1  0
 21  7  1  0
 22  7  1  0
 23 20  2  0
 24 20  1  0
 25 23  1  0
 26 24  2  0
 27 25  2  0
 13 28  1  1
  6  7  1  0
  2  4  1  0
 26 27  1  0
  2 29  1  1
 12 30  2  0
 12 34  1  0
 30 31  1  0
 31 32  2  0
 33 34  2  0
 32 35  1  0
 32 33  1  0
 33 38  1  0
 35 36  2  0
 36 37  1  0
 37 38  2  0
 34 39  1  0
M  END

> <chembl_id>
CHEMBL3306902

> <chembl_pref_name>
APALCILLIN

$$$$

     RDKit          2D

 23 23  0  0  0  0  0  0  0  0999 V2000
    8.7042   -4.5000    0.0000 K   0  0  0  0  0 15  0  0  0  0  0  0
    5.7917   -4.6042    0.0000 N   0  0  0  0  0  0  0  0  0  0  0  0
    5.7917   -5.3250    0.0000 C   0  0  0  0  0  0  0  0  0  0  0  0
    5.0792   -4.6042    0.0000 C   0  0  0  0  0  0  0  0  0  0  0  0
    5.0792   -5.3250    0.0000 C   0  0  0  0  0  0  0  0  0  0  0  0
    6.4750   -4.3917    0.0000 C   0  0  0  0  0  0  0  0  0  0  0  0
    6.4750   -5.5500    0.0000 S   0  0  0  0  0  0  0  0  0  0  0  0
    6.8792   -4.9750    0.0000 C   0  0  0  0  0  0  0  0  0  0  0  0
    7.0542   -3.9667    0.0000 C   0  0  0  0  0  0  0  0  0  0  0  0
    4.3875   -5.1417    0.0000 N   0  0  0  0  0  0  0  0  0  0  0  0
    4.5667   -4.1125    0.0000 O   0  0  0  0  0  0  0  0  0  0  0  0
    3.8917   -5.6542    0.0000 C   0  0  0  0  0  0  0  0  0  0  0  0
    7.7000   -4.2667    0.0000 O   0  0  0  0  0  0  0  0  0  0  0  0
    6.9792   -3.2625    0.0000 O   0  0  0  0  0  0  0  0  0  0  0  0
    4.1292   -6.3375    0.0000 O   0  0  0  0  0  0  0  0  0  0  0  0
    2.0667   -4.0792    0.0000 C   0  0  0  0  0  0  0  0  0  0  0  0
    1.3792   -3.9542    0.0000 C   0  0  0  0  0  0  0  0  0  0  0  0
    7.4875   -4.6042    0.0000 C   0  0  0  0  0  0  0  0  0  0  0  0
    7.4542   -5.3917    0.0000 C   0  0  0  0  0  0  0  0  0  0  0  0
    2.9750   -4.8417    0.0000 S   0  0  0  0  0  0  0  0  0  0  0  0
    3.2167   -5.5167    0.0000 C   0  0  0  0  0  0  0  0  0  0  0  0
    2.3125   -4.7292    0.0000 C   0  0  0  0  0  0  0  0  0  0  0  0
    5.6333   -6.3124    0.0000 H   0  0  0  0  0  0  0  0  0  0  0  0
  3  2  1  0
  4  2  1  0
  5  4  1  0
  6  2  1  0
  7  3  1  0
  8  6  1  0
  6  9  1  1
  5 10  1  6
 11  4  2  0
 12 10  1  0
 13  9  1  0
 14  9  2  0
 15 12  2  0
 16 22  1  0
 17 16  2  0
 18  8  1  0
 19  8  1  0
 20 21  1  0
 21 12  1  0
 22 20  1  0
  7  8  1  0
  3  5  1  0
  3 23  1  1
M  CHG  2   1   1  13  -1
M  END

> <chembl_id>
CHEMBL2105354

> <chembl_pref_name>
PENICILLIN O POTASSIUM

$$$$

     RDKit          2D

 28 30  0  0  0  0  0  0  0  0999 V2000
    0.0124  -18.5672    0.0000 O   0  0  0  0  0  0  0  0  0  0  0  0
    0.8337  -18.5714    0.0000 S   0  0  0  0  0  0  0  0  0  0  0  0
    0.4267  -17.8579    0.0000 O   0  0  0  0  0  0  0  0  0  0  0  0
    5.7494  -19.8697    0.0000 C   0  0  0  0  0  0  0  0  0  0  0  0
    5.0358  -20.2887    0.0000 C   0  0  0  0  0  0  0  0  0  0  0  0
    5.7539  -20.6956    0.0000 C   0  0  0  0  0  0  0  0  0  0  0  0
    2.9449  -19.8755    0.0000 C   0  0  0  0  0  0  0  0  0  0  0  0
    2.9421  -20.6999    0.0000 C   0  0  0  0  0  0  0  0  0  0  0  0
    2.2422  -19.4435    0.0000 N   0  0  0  0  0  0  0  0  0  0  0  0
    2.3546  -21.2824    0.0000 O   0  0  0  0  0  0  0  0  0  0  0  0
    3.7789  -19.0567    0.0000 H   0  0  0  0  0  0  0  0  0  0  0  0
    1.5147  -19.8325    0.0000 C   0  0  0  0  0  0  0  0  0  0  0  0
    0.8119  -19.4003    0.0000 C   0  0  0  0  0  0  0  0  0  0  0  0
    1.4898  -20.6574    0.0000 O   0  0  0  0  0  0  0  0  0  0  0  0
    0.0844  -19.7893    0.0000 C   0  0  0  0  0  0  0  0  0  0  0  0
   -0.6114  -19.3526    0.0000 C   0  0  0  0  0  0  0  0  0  0  0  0
   -1.3384  -19.7409    0.0000 C   0  0  0  0  0  0  0  0  0  0  0  0
   -1.3638  -20.5668    0.0000 C   0  0  0  0  0  0  0  0  0  0  0  0
   -0.6561  -21.0030    0.0000 C   0  0  0  0  0  0  0  0  0  0  0  0
    0.0639  -20.6080    0.0000 C   0  0  0  0  0  0  0  0  0  0  0  0
    3.7710  -19.8781    0.0000 C   0  0  0  0  0  0  0  0  0  0  0  0
    3.7719  -20.7023    0.0000 N   0  0  0  0  0  0  0  0  0  0  0  0
    4.5569  -20.9588    0.0000 C   0  0  0  0  0  0  0  0  0  0  0  0
    4.5550  -19.6238    0.0000 S   0  0  0  0  0  0  0  0  0  0  0  0
    4.9179  -21.7007    0.0000 C   0  0  0  0  0  0  0  0  0  0  0  0
    4.4596  -22.3863    0.0000 O   0  0  0  0  0  0  0  0  0  0  0  0
    5.7415  -21.7568    0.0000 O   0  0  0  0  0  0  0  0  0  0  0  0
    1.5644  -18.1822    0.0000 O   0  0  0  0  0  0  0  0  0  0  0  0
  7  8  1  0
 13 15  1  0
  8 22  1  0
 15 16  2  0
 16 17  1  0
  7  9  1  1
 17 18  2  0
  2  1  2  0
 18 19  1  0
  8 10  2  0
 19 20  2  0
 20 15  1  0
 21 22  1  0
  3  2  2  0
 21 11  1  6
  5  4  1  0
  9 12  1  0
 22 23  1  0
 23  5  1  0
  5 24  1  0
 24 21  1  0
  6  5  1  0
 23 25  1  6
 12 13  1  0
 25 26  2  0
 21  7  1  0
 25 27  1  0
 13  2  1  0
 12 14  2  0
  2 28  1  0
M  END

> <chembl_id>
CHEMBL1256734

> <chembl_pref_name>
SULBENICILLIN

$$$$

     RDKit          2D

 28 30  0  0  1  0  0  0  0  0999 V2000
    2.0292    0.1375    0.0000 N   0  0  0  0  0  0  0  0  0  0  0  0
    2.0292   -0.7125    0.0000 C   0  0  0  0  0  0  0  0  0  0  0  0
    1.1750    0.1375    0.0000 C   0  0  0  0  0  0  0  0  0  0  0  0
    1.1750   -0.7125    0.0000 C   0  0  0  0  0  0  0  0  0  0  0  0
    2.8417    0.3833    0.0000 C   0  0  0  0  0  0  0  0  0  0  0  0
    2.8417   -0.9667    0.0000 S   0  0  0  0  0  0  0  0  0  0  0  0
    3.3167   -0.3000    0.0000 C   0  0  0  0  0  0  0  0  0  0  0  0
    0.1125   -0.5167    0.0000 N   0  0  0  0  0  0  0  0  0  0  0  0
   -0.5833   -0.0125    0.0000 C   0  0  0  0  0  0  0  0  0  0  0  0
    3.5167    0.8750    0.0000 C   0  0  0  0  0  0  0  0  0  0  0  0
   -2.0333    0.0875    0.0000 C   0  0  0  0  0  0  0  0  0  0  0  0
   -1.3458   -0.4917    0.0000 C   0  0  0  0  0  0  0  0  0  0  0  0
   -2.7625   -0.3625    0.0000 C   0  0  0  0  0  0  0  0  0  0  0  0
   -3.3958    0.0875    0.0000 C   0  0  0  0  0  0  0  0  0  0  0  0
    0.5792    0.7458    0.0000 O   0  0  0  0  0  0  0  0  0  0  0  0
   -0.5833    0.7208    0.0000 O   0  0  0  0  0  0  0  0  0  0  0  0
   -3.3958    0.8500    0.0000 C   0  0  0  0  0  0  0  0  0  0  0  0
    3.4375    1.7333    0.0000 O   0  0  0  0  0  0  0  0  0  0  0  0
   -2.0333    0.8500    0.0000 C   0  0  0  0  0  0  0  0  0  0  0  0
   -2.6958    1.3083    0.0000 C   0  0  0  0  0  0  0  0  0  0  0  0
   -4.2375   -0.3125    0.0000 Cl  0  0  0  0  0  0  0  0  0  0  0  0
    4.2792    0.5125    0.0000 O   0  0  0  0  0  0  0  0  0  0  0  0
   -4.2375    1.3083    0.0000 Cl  0  0  0  0  0  0  0  0  0  0  0  0
    3.9792   -0.8042    0.0000 C   0  0  0  0  0  0  0  0  0  0  0  0
    4.0250    0.1375    0.0000 C   0  0  0  0  0  0  0  0  0  0  0  0
   -1.3375   -1.3417    0.0000 O   0  0  0  0  0  0  0  0  0  0  0  0
   -0.6750   -1.8292    0.0000 C   0  0  0  0  0  0  0  0  0  0  0  0
    1.8782   -1.7010    0.0000 H   0  0  0  0  0  0  0  0  0  0  0  0
  2  1  1  0
  3  1  1  0
  4  3  1  0
  5  1  1  0
  6  2  1  0
  7  5  1  0
  4  8  1  6
  9  8  1  0
  5 10  1  1
 11 12  1  0
 12  9  1  0
 13 11  1  0
 14 13  2  0
 15  3  2  0
 16  9  2  0
 17 20  2  0
 18 10  2  0
 19 11  2  0
 20 19  1  0
 21 14  1  0
 22 10  1  0
 23 17  1  0
 24  7  1  0
 25  7  1  0
 26 12  1  0
 27 26  1  0
  6  7  1  0
  2  4  1  0
 14 17  1  0
  2 28  1  1
M  END

> <chembl_id>
CHEMBL2106548

> <chembl_pref_name>
CLOMETOCILLIN

$$$$

     RDKit          2D

 52 55  0  0  0  0  0  0  0  0999 V2000
    5.6792   -1.0625    0.0000 Na  0  0  0  0  0 15  0  0  0  0  0  0
    3.2667   -2.0042    0.0000 N   0  0  0  0  0  0  0  0  0  0  0  0
    3.2417   -2.6792    0.0000 C   0  0  0  0  0  0  0  0  0  0  0  0
    2.6542   -1.9875    0.0000 C   0  0  0  0  0  0  0  0  0  0  0  0
    2.5500   -2.6292    0.0000 C   0  0  0  0  0  0  0  0  0  0  0  0
    5.9917   -5.4542    0.0000 S   0  0  0  0  0  0  0  0  0  0  0  0
    3.9292   -1.8667    0.0000 C   0  0  0  0  0  0  0  0  0  0  0  0
    2.3417   -5.3125    0.0000 C   0  0  0  0  0  0  0  0  0  0  0  0
    3.8625   -2.9375    0.0000 S   0  0  0  0  0  0  0  0  0  0  0  0
    4.2750   -2.4792    0.0000 C   0  0  0  0  0  0  0  0  0  0  0  0
    2.6167   -4.7917    0.0000 C   0  0  0  0  0  0  0  0  0  0  0  0
    1.6917   -5.3125    0.0000 C   0  0  0  0  0  0  0  0  0  0  0  0
    1.8125   -2.4292    0.0000 N   0  0  0  0  0  0  0  0  0  0  0  0
    3.3167   -4.7917    0.0000 N   0  0  0  0  0  0  0  0  0  0  0  0
    1.2792   -3.2542    0.0000 C   0  0  0  0  0  0  0  0  0  0  0  0
    1.0875   -4.8875    0.0000 N   0  0  0  0  0  0  0  0  0  0  0  0
    2.6000   -5.8875    0.0000 C   0  0  0  0  0  0  0  0  0  0  0  0
    3.6250   -5.4042    0.0000 C   0  0  0  0  0  0  0  0  0  0  0  0
    1.1125   -4.1167    0.0000 C   0  0  0  0  0  0  0  0  0  0  0  0
    4.5375   -1.5292    0.0000 C   0  0  0  0  0  0  0  0  0  0  0  0
    3.2417   -5.8875    0.0000 C   0  0  0  0  0  0  0  0  0  0  0  0
    5.9917   -4.7292    0.0000 N   0  0  0  0  0  0  0  0  0  0  0  0
    5.4542   -5.4542    0.0000 C   0  0  0  0  0  0  0  0  0  0  0  0
    5.9917   -6.1792    0.0000 O   0  0  0  0  0  0  0  0  0  0  0  0
    6.6375   -5.4542    0.0000 O   0  0  0  0  0  0  0  0  0  0  0  0
    2.2125   -1.4542    0.0000 O   0  0  0  0  0  0  0  0  0  0  0  0
    4.2042   -5.4042    0.0000 C   0  0  0  0  0  0  0  0  0  0  0  0
    0.4292   -4.0292    0.0000 C   0  0  0  0  0  0  0  0  0  0  0  0
    2.3042   -4.2167    0.0000 O   0  0  0  0  0  0  0  0  0  0  0  0
    1.3542   -6.0042    0.0000 O   0  0  0  0  0  0  0  0  0  0  0  0
    0.7750   -2.7250    0.0000 O   0  0  0  0  0  0  0  0  0  0  0  0
    4.5625   -0.8875    0.0000 O   0  0  0  0  0  0  0  0  0  0  0  0
    5.0917   -1.8792    0.0000 O   0  0  0  0  0  0  0  0  0  0  0  0
    5.1792   -4.9167    0.0000 C   0  0  0  0  0  0  0  0  0  0  0  0
    5.1500   -5.9042    0.0000 C   0  0  0  0  0  0  0  0  0  0  0  0
    4.5375   -4.9167    0.0000 C   0  0  0  0  0  0  0  0  0  0  0  0
    4.4917   -5.9042    0.0000 C   0  0  0  0  0  0  0  0  0  0  0  0
   -0.0625   -4.3167    0.0000 C   0  0  0  0  0  0  0  0  0  0  0  0
    0.4292   -3.4500    0.0000 C   0  0  0  0  0  0  0  0  0  0  0  0
    6.5250   -4.0667    0.0000 C   0  0  0  0  0  0  0  0  0  0  0  0
    5.3417   -4.1917    0.0000 C   0  0  0  0  0  0  0  0  0  0  0  0
    4.8750   -2.1792    0.0000 C   0  0  0  0  0  0  0  0  0  0  0  0
    4.7250   -3.0042    0.0000 C   0  0  0  0  0  0  0  0  0  0  0  0
   -0.6208   -3.4167    0.0000 C   0  0  0  0  0  0  0  0  0  0  0  0
   -0.0833   -3.1042    0.0000 C   0  0  0  0  0  0  0  0  0  0  0  0
   -0.6083   -3.9917    0.0000 C   0  0  0  0  0  0  0  0  0  0  0  0
   -1.1083   -3.0750    0.0000 O   0  0  0  0  0  0  0  0  0  0  0  0
    5.9917   -3.0667    0.0000 O   0  0  0  0  0  0  0  0  0  0  0  0
    7.5250   -4.5042    0.0000 O   0  0  0  0  0  0  0  0  0  0  0  0
    5.3042   -3.5292    0.0000 C   0  0  0  0  0  0  0  0  0  0  0  0
    7.1500   -4.0667    0.0000 C   0  0  0  0  0  0  0  0  0  0  0  0
    3.0106   -3.6521    0.0000 H   0  0  0  0  0  0  0  0  0  0  0  0
  3  2  1  0
  4  2  1  0
  5  4  1  0
  6 23  1  0
  7  2  1  0
  8 12  1  0
  9  3  1  0
 10  7  1  0
 11  8  1  0
 12 16  1  0
  5 13  1  6
 14 11  1  0
 15 13  1  0
 19 16  1  6
 17  8  2  0
 18 21  2  0
 19 15  1  0
  7 20  1  1
 21 17  1  0
 22  6  1  0
 23 35  1  0
 24  6  2  0
 25  6  2  0
 26  4  2  0
 27 18  1  0
 28 19  1  0
 29 11  2  0
 30 12  2  0
 31 15  2  0
 32 20  1  0
 33 20  2  0
 34 36  1  0
 35 37  2  0
 36 27  2  0
 37 27  1  0
 38 28  1  0
 39 28  2  0
 40 22  1  0
 41 22  1  0
 42 10  1  0
 43 10  1  0
 44 45  2  0
 45 39  1  0
 46 38  2  0
 47 44  1  0
 48 50  1  0
 49 51  1  0
 50 41  1  0
 51 40  1  0
  9 10  1  0
  3  5  1  0
 44 46  1  0
 14 18  1  0
 23 34  2  0
  3 52  1  1
M  CHG  2   1   1  32  -1
M  END

> <chembl_id>
CHEMBL2106440

> <chembl_pref_name>
PIRIDICILLIN SODIUM

$$$$

     RDKit          2D

 32 35  0  0  1  0  0  0  0  0999 V2000
    1.9375   -0.7917    0.0000 N   0  0  0  0  0  0  0  0  0  0  0  0
    1.2917   -1.4375    0.0000 C   0  0  0  0  0  0  0  0  0  0  0  0
    1.2917   -0.1292    0.0000 C   0  0  0  0  0  0  0  0  0  0  0  0
    0.6292   -0.7917    0.0000 C   0  0  0  0  0  0  0  0  0  0  0  0
    2.7625   -1.2000    0.0000 C   0  0  0  0  0  0  0  0  0  0  0  0
    1.7000   -2.2667    0.0000 S   0  0  0  0  0  0  0  0  0  0  0  0
    2.6167   -2.1292    0.0000 C   0  0  0  0  0  0  0  0  0  0  0  0
   -0.0333   -0.1125    0.0000 N   0  0  0  0  0  0  0  0  0  0  0  0
   -0.0583    0.7333    0.0000 C   0  0  0  0  0  0  0  0  0  0  0  0
   -1.4208    0.2708    0.0000 N   0  0  0  0  0  0  0  0  0  0  0  0
    3.6917   -1.3375    0.0000 C   0  0  0  0  0  0  0  0  0  0  0  0
   -0.8875    1.2583    0.0000 C   0  0  0  0  0  0  0  0  0  0  0  0
    1.2917    0.8125    0.0000 O   0  0  0  0  0  0  0  0  0  0  0  0
   -3.0458   -0.5250    0.0000 C   0  0  0  0  0  0  0  0  0  0  0  0
   -2.5583    0.2583    0.0000 C   0  0  0  0  0  0  0  0  0  0  0  0
   -2.7333   -1.3917    0.0000 O   0  0  0  0  0  0  0  0  0  0  0  0
   -1.7708    1.5583    0.0000 C   0  0  0  0  0  0  0  0  0  0  0  0
    0.7292    1.3125    0.0000 O   0  0  0  0  0  0  0  0  0  0  0  0
    4.2750   -0.6167    0.0000 O   0  0  0  0  0  0  0  0  0  0  0  0
   -3.9458   -0.5250    0.0000 C   0  0  0  0  0  0  0  0  0  0  0  0
   -3.5000   -1.9417    0.0000 C   0  0  0  0  0  0  0  0  0  0  0  0
   -4.2208   -1.3917    0.0000 C   0  0  0  0  0  0  0  0  0  0  0  0
   -1.7708    2.5208    0.0000 C   0  0  0  0  0  0  0  0  0  0  0  0
   -2.5750    1.0958    0.0000 C   0  0  0  0  0  0  0  0  0  0  0  0
    4.0375   -2.2042    0.0000 O   0  0  0  0  0  0  0  0  0  0  0  0
    3.5292   -2.3667    0.0000 C   0  0  0  0  0  0  0  0  0  0  0  0
    2.7625   -3.0542    0.0000 C   0  0  0  0  0  0  0  0  0  0  0  0
   -3.4000    2.4833    0.0000 C   0  0  0  0  0  0  0  0  0  0  0  0
   -2.5958    2.9708    0.0000 C   0  0  0  0  0  0  0  0  0  0  0  0
   -3.4000    1.5583    0.0000 C   0  0  0  0  0  0  0  0  0  0  0  0
   -4.2250    2.9583    0.0000 O   0  0  0  0  0  0  0  0  0  0  0  0
    0.4824   -2.0249    0.0000 H   0  0  0  0  0  0  0  0  0  0  0  0
  2  1  1  0
  3  1  1  0
  4  3  1  0
  5  1  1  0
  6  2  1  0
  7  5  1  0
  4  8  1  6
  9  8  1  0
 12 10  1  1
  5 11  1  1
 12  9  1  0
 13  3  2  0
 14 15  1  0
 15 10  2  0
 16 14  1  0
 17 12  1  0
 18  9  2  0
 19 11  2  0
 20 14  2  0
 21 16  1  0
 22 20  1  0
 23 17  2  0
 24 17  1  0
 25 11  1  0
 26  7  1  0
 27  7  1  0
 28 30  1  0
 29 23  1  0
 30 24  2  0
 31 28  1  0
  6  7  1  0
  2  4  1  0
 29 28  2  0
 22 21  2  0
  2 32  1  1
M  END

> <chembl_id>
CHEMBL2107409

> <chembl_pref_name>
FUMOXICILLIN

$$$$

     RDKit          2D

 27 29  0  0  1  0  0  0  0  0999 V2000
    1.5000    0.5000    0.0000 N   0  0  0  0  0  0  0  0  0  0  0  0
    1.5000   -0.5542    0.0000 C   0  0  0  0  0  0  0  0  0  0  0  0
    0.4375    0.5000    0.0000 C   0  0  0  0  0  0  0  0  0  0  0  0
    0.4375   -0.5542    0.0000 C   0  0  0  0  0  0  0  0  0  0  0  0
    2.5167    0.8208    0.0000 C   0  0  0  0  0  0  0  0  0  0  0  0
    2.5167   -0.8792    0.0000 S   0  0  0  0  0  0  0  0  0  0  0  0
    3.1125   -0.0292    0.0000 C   0  0  0  0  0  0  0  0  0  0  0  0
   -0.5208   -0.1375    0.0000 N   0  0  0  0  0  0  0  0  0  0  0  0
   -1.3625   -0.7792    0.0000 C   0  0  0  0  0  0  0  0  0  0  0  0
    3.2542    1.6000    0.0000 C   0  0  0  0  0  0  0  0  0  0  0  0
   -1.3625   -1.7667    0.0000 C   0  0  0  0  0  0  0  0  0  0  0  0
   -0.0625    1.3708    0.0000 O   0  0  0  0  0  0  0  0  0  0  0  0
   -2.3958   -1.7667    0.0000 O   0  0  0  0  0  0  0  0  0  0  0  0
   -1.8958    0.1833    0.0000 O   0  0  0  0  0  0  0  0  0  0  0  0
    3.0042    2.5833    0.0000 O   0  0  0  0  0  0  0  0  0  0  0  0
    4.2667    1.2958    0.0000 O   0  0  0  0  0  0  0  0  0  0  0  0
   -3.0250   -1.0500    0.0000 C   0  0  0  0  0  0  0  0  0  0  0  0
    3.9917   -0.6542    0.0000 C   0  0  0  0  0  0  0  0  0  0  0  0
    4.0167    0.5250    0.0000 C   0  0  0  0  0  0  0  0  0  0  0  0
   -1.3625   -2.6917    0.0000 C   0  0  0  0  0  0  0  0  0  0  0  0
   -0.3458   -1.7667    0.0000 C   0  0  0  0  0  0  0  0  0  0  0  0
   -3.8333   -1.2375    0.0000 C   0  0  0  0  0  0  0  0  0  0  0  0
   -2.6958   -0.3667    0.0000 C   0  0  0  0  0  0  0  0  0  0  0  0
   -4.3458   -0.6125    0.0000 C   0  0  0  0  0  0  0  0  0  0  0  0
   -3.2125    0.2500    0.0000 C   0  0  0  0  0  0  0  0  0  0  0  0
   -4.0208    0.0833    0.0000 C   0  0  0  0  0  0  0  0  0  0  0  0
    1.3459   -1.5423    0.0000 H   0  0  0  0  0  0  0  0  0  0  0  0
  2  1  1  0
  3  1  1  0
  4  3  1  0
  5  1  1  0
  6  2  1  0
  7  5  1  0
  4  8  1  6
  9  8  1  0
  5 10  1  1
 11  9  1  0
 12  3  2  0
 13 11  1  0
 14  9  2  0
 15 10  2  0
 16 10  1  0
 17 13  1  0
 18  7  1  0
 19  7  1  0
 20 11  1  0
 21 11  1  0
 22 17  1  0
 23 17  2  0
 24 22  2  0
 25 23  1  0
 26 25  2  0
  6  7  1  0
  2  4  1  0
 24 26  1  0
  2 27  1  1
M  END

> <chembl_id>
CHEMBL2104886

> <chembl_pref_name>
ISOPROPICILLIN

$$$$

     RDKit          2D

 25 27  0  0  0  0  0  0  0  0999 V2000
    6.9151   -3.6262    0.0000 N   0  0  0  0  0  0  0  0  0  0  0  0
    6.9151   -2.8061    0.0000 C   0  0  0  0  0  0  0  0  0  0  0  0
    6.0908   -3.6303    0.0000 C   0  0  0  0  0  0  0  0  0  0  0  0
    6.0908   -2.8061    0.0000 C   0  0  0  0  0  0  0  0  0  0  0  0
    7.7020   -3.8802    0.0000 C   0  0  0  0  0  0  0  0  0  0  0  0
    7.6895   -2.5437    0.0000 S   0  0  0  0  0  0  0  0  0  0  0  0
    8.1849   -3.2140    0.0000 C   0  0  0  0  0  0  0  0  0  0  0  0
    5.5038   -2.2190    0.0000 N   0  0  0  0  0  0  0  0  0  0  0  0
    7.9643   -4.6628    0.0000 C   0  0  0  0  0  0  0  0  0  0  0  0
    4.7794   -2.6186    0.0000 C   0  0  0  0  0  0  0  0  0  0  0  0
    5.5038   -4.2132    0.0000 O   0  0  0  0  0  0  0  0  0  0  0  0
    8.7761   -4.8294    0.0000 O   0  0  0  0  0  0  0  0  0  0  0  0
    4.7627   -3.4430    0.0000 O   0  0  0  0  0  0  0  0  0  0  0  0
    3.3555   -2.5812    0.0000 O   0  0  0  0  0  0  0  0  0  0  0  0
    4.0800   -2.1816    0.0000 C   0  0  0  0  0  0  0  0  0  0  0  0
    7.4147   -5.2789    0.0000 N   0  0  0  0  0  0  0  0  0  0  0  0
    8.9010   -3.6262    0.0000 C   0  0  0  0  0  0  0  0  0  0  0  0
    8.7636   -2.6270    0.0000 C   0  0  0  0  0  0  0  0  0  0  0  0
    2.6437   -2.1565    0.0000 C   0  0  0  0  0  0  0  0  0  0  0  0
    1.9317   -2.5521    0.0000 C   0  0  0  0  0  0  0  0  0  0  0  0
    2.6769   -1.3322    0.0000 C   0  0  0  0  0  0  0  0  0  0  0  0
    1.9692   -0.8951    0.0000 C   0  0  0  0  0  0  0  0  0  0  0  0
    1.2281   -2.1274    0.0000 C   0  0  0  0  0  0  0  0  0  0  0  0
    1.2448   -1.2948    0.0000 C   0  0  0  0  0  0  0  0  0  0  0  0
    6.9026   -1.9775    0.0000 H   0  0  0  0  0  0  0  0  0  0  0  0
  2  1  1  0
  3  1  1  0
  4  3  1  0
  5  1  1  0
  6  2  1  0
  7  5  1  0
  4  8  1  1
  5  9  1  6
 10  8  1  0
 11  3  2  0
 12  9  2  0
 13 10  2  0
 14 15  1  0
 15 10  1  0
 16  9  1  0
 17  7  1  0
 18  7  1  0
 19 14  1  0
 20 19  1  0
 21 19  2  0
 22 21  1  0
 23 20  2  0
 24 22  2  0
  2 25  1  6
  7  6  1  0
  2  4  1  0
 23 24  1  0
M  END

> <chembl_id>
CHEMBL3114799

> <chembl_pref_name>
None

$$$$

     RDKit          2D

 40 44  0  0  1  0  0  0  0  0999 V2000
    1.4949   -3.0054    0.0000 N   0  0  0  0  0  0  0  0  0  0  0  0
    1.4949   -2.1804    0.0000 C   0  0  0  0  0  0  0  0  0  0  0  0
    0.6679   -3.0034    0.0000 C   0  0  0  0  0  0  0  0  0  0  0  0
    0.6679   -2.1804    0.0000 C   0  0  0  0  0  0  0  0  0  0  0  0
    2.2795   -3.2604    0.0000 C   0  0  0  0  0  0  0  0  0  0  0  0
    2.2795   -1.9255    0.0000 S   0  0  0  0  0  0  0  0  0  0  0  0
    2.7644   -2.5929    0.0000 C   0  0  0  0  0  0  0  0  0  0  0  0
    0.0845   -1.5971    0.0000 N   0  0  0  0  0  0  0  0  0  0  0  0
   -0.7124   -1.8106    0.0000 C   0  0  0  0  0  0  0  0  0  0  0  0
   -3.7811    3.2790    0.0000 C   0  0  0  0  0  0  0  0  0  0  0  0
    2.5344   -4.0450    0.0000 C   0  0  0  0  0  0  0  0  0  0  0  0
   -1.2957   -1.2272    0.0000 C   0  0  0  0  0  0  0  0  0  0  0  0
   -3.5688    4.0762    0.0000 N   0  0  0  0  0  0  0  0  0  0  0  0
   -1.0822   -0.4303    0.0000 N   0  0  0  0  0  0  0  0  0  0  0  0
   -1.6641    0.1516    0.0000 C   0  0  0  0  0  0  0  0  0  0  0  0
    0.0994   -3.5997    0.0000 O   0  0  0  0  0  0  0  0  0  0  0  0
   -4.5777    3.0643    0.0000 N   0  0  0  0  0  0  0  0  0  0  0  0
   -3.1978    2.6957    0.0000 C   0  0  0  0  0  0  0  0  0  0  0  0
   -0.8510   -2.6239    0.0000 O   0  0  0  0  0  0  0  0  0  0  0  0
    1.9856   -4.6610    0.0000 O   0  0  0  0  0  0  0  0  0  0  0  0
   -2.4610   -0.0619    0.0000 O   0  0  0  0  0  0  0  0  0  0  0  0
   -2.0960   -1.4417    0.0000 C   0  0  0  0  0  0  0  0  0  0  0  0
   -1.4506    0.9485    0.0000 C   0  0  0  0  0  0  0  0  0  0  0  0
   -2.3994    2.9037    0.0000 C   0  0  0  0  0  0  0  0  0  0  0  0
   -3.4002    1.9029    0.0000 C   0  0  0  0  0  0  0  0  0  0  0  0
    3.3412   -4.1994    0.0000 O   0  0  0  0  0  0  0  0  0  0  0  0
   -2.0339    1.5318    0.0000 C   0  0  0  0  0  0  0  0  0  0  0  0
    3.4323   -2.1118    0.0000 C   0  0  0  0  0  0  0  0  0  0  0  0
    3.4681   -3.0183    0.0000 C   0  0  0  0  0  0  0  0  0  0  0  0
   -1.8259    2.3302    0.0000 C   0  0  0  0  0  0  0  0  0  0  0  0
   -2.8267    1.3294    0.0000 C   0  0  0  0  0  0  0  0  0  0  0  0
   -4.1530    4.6587    0.0000 C   0  0  0  0  0  0  0  0  0  0  0  0
   -4.9495    4.4441    0.0000 C   0  0  0  0  0  0  0  0  0  0  0  0
   -5.1619    3.6469    0.0000 C   0  0  0  0  0  0  0  0  0  0  0  0
   -2.2920   -2.2430    0.0000 C   0  0  0  0  0  0  0  0  0  0  0  0
   -2.6920   -0.8712    0.0000 C   0  0  0  0  0  0  0  0  0  0  0  0
   -3.4841   -1.1022    0.0000 C   0  0  0  0  0  0  0  0  0  0  0  0
   -3.0841   -2.4740    0.0000 C   0  0  0  0  0  0  0  0  0  0  0  0
   -3.6801   -1.9036    0.0000 C   0  0  0  0  0  0  0  0  0  0  0  0
    1.3695   -1.3650    0.0000 H   0  0  0  0  0  0  0  0  0  0  0  0
  2  1  1  0
  3  1  1  0
  4  3  1  0
  5  1  1  0
  6  2  1  0
  7  5  1  0
  4  8  1  1
  9  8  1  0
 10 18  1  0
  5 11  1  6
 12  9  1  0
 13 10  2  0
 12 14  1  1
 15 14  1  0
 16  3  2  0
 17 10  1  0
 18 25  1  0
 19  9  2  0
 20 11  2  0
 21 15  2  0
 12 22  1  0
 23 15  1  0
 24 30  1  0
 25 31  2  0
 26 11  1  0
 27 23  1  0
 28  7  1  0
 29  7  1  0
 30 27  2  0
 31 27  1  0
 32 13  1  0
 33 34  1  0
 34 17  1  0
 35 22  1  0
 36 22  2  0
 37 36  1  0
 38 35  2  0
 39 37  2  0
  6  7  1  0
  2  4  1  0
 38 39  1  0
 24 18  2  0
 32 33  1  0
  2 40  1  6
M  END


> <chembl_id>
CHEMBL4594218

> <chembl_pref_name>
ROTAMICILLIN

$$$$

     RDKit          2D

 22 23  0  0  0  0  0  0  0  0999 V2000
   -3.5616   -3.5615    0.0000 O   0  0  0  0  0  0  0  0  0  0  0  0
   -4.9905    4.6885    0.0000 O   0  0  0  0  0  0  0  0  0  0  0  0
   -4.9905   -0.2615    0.0000 N   0  0  0  0  0  0  0  0  0  0  0  0
   -3.5616    1.3885    0.0000 N   0  0  0  0  0  0  0  0  0  0  0  0
   -4.2760    0.1510    0.0000 C   0  0  0  0  0  0  0  0  0  0  0  0
   -4.2760    0.9760    0.0000 C   0  0  0  0  0  0  0  0  0  0  0  0
   -3.5616   -1.0865    0.0000 C   0  0  0  0  0  0  0  0  0  0  0  0
   -4.9905    2.2135    0.0000 C   0  0  0  0  0  0  0  0  0  0  0  0
   -3.5616   -0.2615    0.0000 C   0  0  0  0  0  0  0  0  0  0  0  0
   -4.9905    1.3885    0.0000 C   0  0  0  0  0  0  0  0  0  0  0  0
   -2.8471   -1.4990    0.0000 C   0  0  0  0  0  0  0  0  0  0  0  0
   -5.7050    2.6260    0.0000 C   0  0  0  0  0  0  0  0  0  0  0  0
   -4.2760   -1.4990    0.0000 C   0  0  0  0  0  0  0  0  0  0  0  0
   -4.2760    2.6260    0.0000 C   0  0  0  0  0  0  0  0  0  0  0  0
   -3.5616   -2.7365    0.0000 C   0  0  0  0  0  0  0  0  0  0  0  0
   -4.9905    3.8635    0.0000 C   0  0  0  0  0  0  0  0  0  0  0  0
   -2.8471   -2.3240    0.0000 C   0  0  0  0  0  0  0  0  0  0  0  0
   -5.7050    3.4510    0.0000 C   0  0  0  0  0  0  0  0  0  0  0  0
   -4.2760   -2.3240    0.0000 C   0  0  0  0  0  0  0  0  0  0  0  0
   -4.2760    3.4510    0.0000 C   0  0  0  0  0  0  0  0  0  0  0  0
   -5.7050   -0.6740    0.0000 C   0  0  0  0  0  0  0  0  0  0  0  0
   -2.8471    1.8010    0.0000 C   0  0  0  0  0  0  0  0  0  0  0  0
  1 15  1  0
  2 16  1  0
  3  5  1  0
  3 21  3  0
  4  6  1  0
  4 22  3  0
  5  6  1  0
  5  9  2  0
  6 10  2  0
  7  9  1  0
  7 11  2  0
  7 13  1  0
  8 10  1  0
  8 12  2  0
  8 14  1  0
 11 17  1  0
 12 18  1  0
 13 19  2  0
 14 20  2  0
 15 17  2  0
 15 19  1  0
 16 18  2  0
 16 20  1  0
M  CHG  4   3   1   4   1  21  -1  22  -1
M  END

> <chembl_id>
CHEMBL1977264

> <chembl_pref_name>
XANTOCILLIN

$$$$

     RDKit          2D

 38 41  0  0  1  0  0  0  0  0999 V2000
    4.5292   -1.9750    0.0000 N   0  0  0  0  0  0  0  0  0  0  0  0
    4.5292   -1.1375    0.0000 C   0  0  0  0  0  0  0  0  0  0  0  0
    3.6917   -1.9750    0.0000 C   0  0  0  0  0  0  0  0  0  0  0  0
    3.6917   -1.1375    0.0000 C   0  0  0  0  0  0  0  0  0  0  0  0
    5.3417   -2.2417    0.0000 C   0  0  0  0  0  0  0  0  0  0  0  0
    5.3417   -0.8792    0.0000 S   0  0  0  0  0  0  0  0  0  0  0  0
    5.8167   -1.5375    0.0000 C   0  0  0  0  0  0  0  0  0  0  0  0
    5.6167   -3.0375    0.0000 C   0  0  0  0  0  0  0  0  0  0  0  0
    5.0792   -3.6625    0.0000 N   0  0  0  0  0  0  0  0  0  0  0  0
    2.8917   -1.3542    0.0000 N   0  0  0  0  0  0  0  0  0  0  0  0
    5.0792   -4.5167    0.0000 C   0  0  0  0  0  0  0  0  0  0  0  0
    4.2917   -4.7875    0.0000 C   0  0  0  0  0  0  0  0  0  0  0  0
    2.2542   -0.8500    0.0000 C   0  0  0  0  0  0  0  0  0  0  0  0
    3.1042   -2.5625    0.0000 O   0  0  0  0  0  0  0  0  0  0  0  0
    6.4542   -3.2042    0.0000 O   0  0  0  0  0  0  0  0  0  0  0  0
    5.7042   -5.0542    0.0000 C   0  0  0  0  0  0  0  0  0  0  0  0
    4.2792   -5.5792    0.0000 O   0  0  0  0  0  0  0  0  0  0  0  0
    2.6542   -0.1792    0.0000 O   0  0  0  0  0  0  0  0  0  0  0  0
    1.0042   -1.4667    0.0000 O   0  0  0  0  0  0  0  0  0  0  0  0
    1.4542   -0.8542    0.0000 C   0  0  0  0  0  0  0  0  0  0  0  0
    6.4167   -4.6500    0.0000 C   0  0  0  0  0  0  0  0  0  0  0  0
    3.6292   -4.3000    0.0000 O   0  0  0  0  0  0  0  0  0  0  0  0
    6.3292   -0.8500    0.0000 C   0  0  0  0  0  0  0  0  0  0  0  0
    6.4667   -2.0750    0.0000 C   0  0  0  0  0  0  0  0  0  0  0  0
    7.8417   -3.8292    0.0000 C   0  0  0  0  0  0  0  0  0  0  0  0
    1.3667   -2.2250    0.0000 C   0  0  0  0  0  0  0  0  0  0  0  0
    7.1292   -5.0625    0.0000 C   0  0  0  0  0  0  0  0  0  0  0  0
    6.4167   -3.8167    0.0000 C   0  0  0  0  0  0  0  0  0  0  0  0
    7.1417   -3.4125    0.0000 C   0  0  0  0  0  0  0  0  0  0  0  0
    7.8417   -4.6542    0.0000 C   0  0  0  0  0  0  0  0  0  0  0  0
    8.5667   -3.4250    0.0000 O   0  0  0  0  0  0  0  0  0  0  0  0
    0.9917   -2.9375    0.0000 C   0  0  0  0  0  0  0  0  0  0  0  0
    2.1917   -2.2250    0.0000 C   0  0  0  0  0  0  0  0  0  0  0  0
    1.4042   -3.6042    0.0000 C   0  0  0  0  0  0  0  0  0  0  0  0
    2.6167   -2.9375    0.0000 C   0  0  0  0  0  0  0  0  0  0  0  0
    2.2042   -3.6000    0.0000 C   0  0  0  0  0  0  0  0  0  0  0  0
    3.6917   -0.2875    0.0000 H   0  0  0  0  0  0  0  0  0  0  0  0
    4.5292   -0.2875    0.0000 H   0  0  0  0  0  0  0  0  0  0  0  0
  2  1  1  0
  3  1  1  0
  4  3  1  0
  5  1  1  0
  6  2  1  0
  7  5  1  0
  5  8  1  6
  9  8  1  0
  4 10  1  1
 11  9  1  0
 12 11  1  0
 13 10  1  0
 14  3  2  0
 15  8  2  0
 16 11  1  0
 17 12  2  0
 18 13  2  0
 19 20  1  0
 20 13  1  0
 21 16  1  0
 22 12  1  0
 23  7  1  0
 24  7  1  0
 25 29  1  0
 26 19  1  0
 27 21  2  0
 28 21  1  0
 29 28  2  0
 30 27  1  0
 31 25  1  0
 32 26  2  0
 33 26  1  0
 34 32  1  0
 35 33  2  0
 36 35  1  0
  4 37  1  6
  2 38  1  6
  7  6  1  0
  4  2  1  0
 25 30  2  0
 36 34  2  0
M  END

> <chembl_id>
CHEMBL178023

> <chembl_pref_name>
None

$$$$

     RDKit          2D

 31 34  0  0  1  0  0  0  0  0999 V2000
    1.8375   -0.0500    0.0000 N   0  0  0  0  0  0  0  0  0  0  0  0
   -2.4125   -0.4500    0.0000 N   0  0  0  0  0  0  0  0  0  0  0  0
    1.8375   -0.9542    0.0000 C   0  0  0  0  0  0  0  0  0  0  0  0
    0.9250   -0.0500    0.0000 C   0  0  0  0  0  0  0  0  0  0  0  0
    0.9250   -0.9542    0.0000 C   0  0  0  0  0  0  0  0  0  0  0  0
   -1.5208   -0.7292    0.0000 C   0  0  0  0  0  0  0  0  0  0  0  0
    2.7167    0.2250    0.0000 C   0  0  0  0  0  0  0  0  0  0  0  0
    2.7167   -1.2375    0.0000 S   0  0  0  0  0  0  0  0  0  0  0  0
   -0.8958   -0.4542    0.0000 C   0  0  0  0  0  0  0  0  0  0  0  0
   -2.9458   -1.2000    0.0000 N   0  0  0  0  0  0  0  0  0  0  0  0
    3.2500   -0.5167    0.0000 C   0  0  0  0  0  0  0  0  0  0  0  0
   -2.6875    0.4000    0.0000 C   0  0  0  0  0  0  0  0  0  0  0  0
   -0.1458   -0.7667    0.0000 N   0  0  0  0  0  0  0  0  0  0  0  0
   -1.5208   -1.6542    0.0000 C   0  0  0  0  0  0  0  0  0  0  0  0
    3.4667    0.7708    0.0000 C   0  0  0  0  0  0  0  0  0  0  0  0
   -2.4125   -1.9500    0.0000 C   0  0  0  0  0  0  0  0  0  0  0  0
    0.5542    0.7250    0.0000 O   0  0  0  0  0  0  0  0  0  0  0  0
   -3.5625    0.5708    0.0000 C   0  0  0  0  0  0  0  0  0  0  0  0
   -2.0958    1.0625    0.0000 C   0  0  0  0  0  0  0  0  0  0  0  0
   -0.8958    0.3583    0.0000 O   0  0  0  0  0  0  0  0  0  0  0  0
    3.3792    1.6625    0.0000 O   0  0  0  0  0  0  0  0  0  0  0  0
    4.2792    0.3708    0.0000 O   0  0  0  0  0  0  0  0  0  0  0  0
   -4.2333    0.0250    0.0000 Cl  0  0  0  0  0  0  0  0  0  0  0  0
   -1.1958    1.1375    0.0000 Cl  0  0  0  0  0  0  0  0  0  0  0  0
    3.9792   -1.0542    0.0000 C   0  0  0  0  0  0  0  0  0  0  0  0
    4.0292   -0.0500    0.0000 C   0  0  0  0  0  0  0  0  0  0  0  0
   -0.9250   -2.0792    0.0000 C   0  0  0  0  0  0  0  0  0  0  0  0
   -3.2583    2.0875    0.0000 C   0  0  0  0  0  0  0  0  0  0  0  0
   -3.8500    1.4208    0.0000 C   0  0  0  0  0  0  0  0  0  0  0  0
   -2.3833    1.9208    0.0000 C   0  0  0  0  0  0  0  0  0  0  0  0
    1.6823   -1.9421    0.0000 H   0  0  0  0  0  0  0  0  0  0  0  0
  2  6  1  0
  3  1  1  0
  4  1  1  0
  5  4  1  0
  6  9  1  0
  7  1  1  0
  8  3  1  0
  9 13  1  0
 10  2  1  0
 11  7  1  0
 12  2  1  0
  5 13  1  6
 14  6  2  0
  7 15  1  1
 16 14  1  0
 17  4  2  0
 18 12  1  0
 19 12  2  0
 20  9  2  0
 21 15  2  0
 22 15  1  0
 23 18  1  0
 24 19  1  0
 25 11  1  0
 26 11  1  0
 27 14  1  0
 28 30  2  0
 29 18  2  0
 30 19  1  0
  8 11  1  0
  3  5  1  0
 10 16  2  0
 29 28  1  0
  3 31  1  1
M  END

> <chembl_id>
CHEMBL2106877

> <chembl_pref_name>
PRAZOCILLIN

$$$$

     RDKit          2D

 31 34  0  0  1  0  0  0  0  0999 V2000
    1.7542    0.7958    0.0000 N   0  0  0  0  0  0  0  0  0  0  0  0
    1.7417   -0.1250    0.0000 C   0  0  0  0  0  0  0  0  0  0  0  0
    0.8000    0.7958    0.0000 C   0  0  0  0  0  0  0  0  0  0  0  0
    0.8000   -0.1250    0.0000 C   0  0  0  0  0  0  0  0  0  0  0  0
    2.6542    1.0875    0.0000 C   0  0  0  0  0  0  0  0  0  0  0  0
    2.6542   -0.4167    0.0000 S   0  0  0  0  0  0  0  0  0  0  0  0
    3.2042    0.3208    0.0000 C   0  0  0  0  0  0  0  0  0  0  0  0
   -0.3583   -0.0792    0.0000 N   0  0  0  0  0  0  0  0  0  0  0  0
   -1.1083    0.4708    0.0000 C   0  0  0  0  0  0  0  0  0  0  0  0
    3.4417    1.6375    0.0000 C   0  0  0  0  0  0  0  0  0  0  0  0
   -1.9708    0.0833    0.0000 C   0  0  0  0  0  0  0  0  0  0  0  0
    0.1500    1.4833    0.0000 O   0  0  0  0  0  0  0  0  0  0  0  0
   -1.9708   -0.6292    0.0000 O   0  0  0  0  0  0  0  0  0  0  0  0
   -1.1083    1.2333    0.0000 O   0  0  0  0  0  0  0  0  0  0  0  0
    3.3542    2.5833    0.0000 O   0  0  0  0  0  0  0  0  0  0  0  0
   -2.7250    0.6375    0.0000 C   0  0  0  0  0  0  0  0  0  0  0  0
    4.2792    1.2333    0.0000 O   0  0  0  0  0  0  0  0  0  0  0  0
   -2.7208   -1.1792    0.0000 C   0  0  0  0  0  0  0  0  0  0  0  0
    3.9792   -0.2167    0.0000 C   0  0  0  0  0  0  0  0  0  0  0  0
    4.0167    0.8083    0.0000 C   0  0  0  0  0  0  0  0  0  0  0  0
   -2.6250    1.5583    0.0000 C   0  0  0  0  0  0  0  0  0  0  0  0
   -3.5458    0.2333    0.0000 C   0  0  0  0  0  0  0  0  0  0  0  0
   -2.6375   -2.1375    0.0000 C   0  0  0  0  0  0  0  0  0  0  0  0
   -3.5708   -0.8000    0.0000 C   0  0  0  0  0  0  0  0  0  0  0  0
   -4.3125    0.7708    0.0000 C   0  0  0  0  0  0  0  0  0  0  0  0
   -3.3875    2.0875    0.0000 C   0  0  0  0  0  0  0  0  0  0  0  0
   -3.3875   -2.6875    0.0000 C   0  0  0  0  0  0  0  0  0  0  0  0
   -4.3458   -1.3500    0.0000 C   0  0  0  0  0  0  0  0  0  0  0  0
   -4.2458    1.6708    0.0000 C   0  0  0  0  0  0  0  0  0  0  0  0
   -4.2458   -2.2750    0.0000 C   0  0  0  0  0  0  0  0  0  0  0  0
    1.5876   -1.1131    0.0000 H   0  0  0  0  0  0  0  0  0  0  0  0
  2  1  1  0
  3  1  1  0
  4  3  1  0
  5  1  1  0
  6  2  1  0
  7  5  1  0
  4  8  1  6
  9  8  1  0
  5 10  1  1
 11  9  1  0
 12  3  2  0
 13 11  1  0
 14  9  2  0
 15 10  2  0
 16 11  1  0
 17 10  1  0
 18 13  1  0
 19  7  1  0
 20  7  1  0
 21 16  2  0
 22 16  1  0
 23 18  2  0
 24 18  1  0
 25 22  2  0
 26 21  1  0
 27 23  1  0
 28 24  2  0
 29 25  1  0
 30 28  1  0
  6  7  1  0
  2  4  1  0
 26 29  2  0
 27 30  2  0
  2 31  1  1
M  END

> <chembl_id>
CHEMBL2106298

> <chembl_pref_name>
FENBENICILLIN

$$$$

     RDKit          2D

 27 29  0  0  1  0  0  0  0  0999 V2000
    1.9897    0.8303    0.0000 N   0  0  0  0  0  0  0  0  0  0  0  0
    1.7762    0.0334    0.0000 C   0  0  0  0  0  0  0  0  0  0  0  0
    1.1929    1.0438    0.0000 C   0  0  0  0  0  0  0  0  0  0  0  0
    0.9793    0.2469    0.0000 C   0  0  0  0  0  0  0  0  0  0  0  0
    2.8136    0.8735    0.0000 C   0  0  0  0  0  0  0  0  0  0  0  0
    2.4681   -0.4159    0.0000 S   0  0  0  0  0  0  0  0  0  0  0  0
    3.1093    0.1033    0.0000 C   0  0  0  0  0  0  0  0  0  0  0  0
    0.2649   -0.1656    0.0000 N   0  0  0  0  0  0  0  0  0  0  0  0
   -0.4496    0.2469    0.0000 C   0  0  0  0  0  0  0  0  0  0  0  0
    3.2629    1.5654    0.0000 C   0  0  0  0  0  0  0  0  0  0  0  0
    0.7804    1.7583    0.0000 O   0  0  0  0  0  0  0  0  0  0  0  0
   -1.1641   -0.1656    0.0000 C   0  0  0  0  0  0  0  0  0  0  0  0
   -1.8786    0.2469    0.0000 O   0  0  0  0  0  0  0  0  0  0  0  0
    4.0868    1.5222    0.0000 O   0  0  0  0  0  0  0  0  0  0  0  0
   -0.4496    1.0719    0.0000 O   0  0  0  0  0  0  0  0  0  0  0  0
    2.8884    2.3005    0.0000 O   0  0  0  0  0  0  0  0  0  0  0  0
    3.8443    0.4778    0.0000 C   0  0  0  0  0  0  0  0  0  0  0  0
    3.5586   -0.5886    0.0000 C   0  0  0  0  0  0  0  0  0  0  0  0
   -2.5930   -0.1656    0.0000 C   0  0  0  0  0  0  0  0  0  0  0  0
   -1.1641   -0.9906    0.0000 C   0  0  0  0  0  0  0  0  0  0  0  0
   -3.3075    0.2469    0.0000 C   0  0  0  0  0  0  0  0  0  0  0  0
   -2.5930   -0.9906    0.0000 C   0  0  0  0  0  0  0  0  0  0  0  0
   -1.8786   -1.4031    0.0000 C   0  0  0  0  0  0  0  0  0  0  0  0
   -4.0220   -0.1656    0.0000 C   0  0  0  0  0  0  0  0  0  0  0  0
   -3.3075   -1.4031    0.0000 C   0  0  0  0  0  0  0  0  0  0  0  0
   -4.0220   -0.9906    0.0000 C   0  0  0  0  0  0  0  0  0  0  0  0
    1.4407   -0.7203    0.0000 H   0  0  0  0  0  0  0  0  0  0  0  0
  2  1  1  0
  3  1  1  0
  4  3  1  0
  5  1  1  0
  6  2  1  0
  7  5  1  0
  4  8  1  6
  9  8  1  0
  5 10  1  1
 11  3  2  0
 12  9  1  0
 12 13  1  0
 14 10  1  0
 15  9  2  0
 16 10  2  0
 17  7  1  0
 18  7  1  0
 19 13  1  0
 12 20  1  6
 21 19  2  0
 22 19  1  0
 23 20  1  0
 24 21  1  0
 25 22  2  0
 26 24  2  0
  6  7  1  0
  2  4  1  0
 25 26  1  0
  2 27  1  1
M  END

> <chembl_id>
CHEMBL3990988

> <chembl_pref_name>
LEVOPROPYLCILLIN

$$$$

     RDKit          2D

 23 23  0  0  0  0  0  0  0  0999 V2000
    8.9542   -4.4042    0.0000 Na  0  0  0  0  0 15  0  0  0  0  0  0
    5.7917   -4.6042    0.0000 N   0  0  0  0  0  0  0  0  0  0  0  0
    5.7917   -5.3250    0.0000 C   0  0  0  0  0  0  0  0  0  0  0  0
    5.0792   -4.6042    0.0000 C   0  0  0  0  0  0  0  0  0  0  0  0
    5.0792   -5.3250    0.0000 C   0  0  0  0  0  0  0  0  0  0  0  0
    6.4750   -4.3917    0.0000 C   0  0  0  0  0  0  0  0  0  0  0  0
    6.4750   -5.5500    0.0000 S   0  0  0  0  0  0  0  0  0  0  0  0
    6.8792   -4.9750    0.0000 C   0  0  0  0  0  0  0  0  0  0  0  0
    7.0542   -3.9667    0.0000 C   0  0  0  0  0  0  0  0  0  0  0  0
    4.3875   -5.1417    0.0000 N   0  0  0  0  0  0  0  0  0  0  0  0
    4.5667   -4.1125    0.0000 O   0  0  0  0  0  0  0  0  0  0  0  0
    3.8917   -5.6542    0.0000 C   0  0  0  0  0  0  0  0  0  0  0  0
    7.7000   -4.2667    0.0000 O   0  0  0  0  0  0  0  0  0  0  0  0
    6.9792   -3.2625    0.0000 O   0  0  0  0  0  0  0  0  0  0  0  0
    4.1292   -6.3375    0.0000 O   0  0  0  0  0  0  0  0  0  0  0  0
    2.0667   -4.0792    0.0000 C   0  0  0  0  0  0  0  0  0  0  0  0
    1.3792   -3.9542    0.0000 C   0  0  0  0  0  0  0  0  0  0  0  0
    7.4875   -4.6042    0.0000 C   0  0  0  0  0  0  0  0  0  0  0  0
    7.4542   -5.3917    0.0000 C   0  0  0  0  0  0  0  0  0  0  0  0
    2.9750   -4.8417    0.0000 S   0  0  0  0  0  0  0  0  0  0  0  0
    3.2167   -5.5167    0.0000 C   0  0  0  0  0  0  0  0  0  0  0  0
    2.3125   -4.7292    0.0000 C   0  0  0  0  0  0  0  0  0  0  0  0
    5.6333   -6.3124    0.0000 H   0  0  0  0  0  0  0  0  0  0  0  0
  3  2  1  0
  4  2  1  0
  5  4  1  0
  6  2  1  0
  7  3  1  0
  8  6  1  0
  6  9  1  1
  5 10  1  6
 11  4  2  0
 12 10  1  0
 13  9  1  0
 14  9  2  0
 15 12  2  0
 16 22  1  0
 17 16  2  0
 18  8  1  0
 19  8  1  0
 20 21  1  0
 21 12  1  0
 22 20  1  0
  7  8  1  0
  3  5  1  0
  3 23  1  1
M  CHG  2   1   1  13  -1
M  END

> <chembl_id>
CHEMBL2105355

> <chembl_pref_name>
PENICILLIN O SODIUM

$$$$

     RDKit          2D

 36 39  0  0  0  0  0  0  0  0999 V2000
    3.1049   -0.4673    0.0000 S   0  0  0  0  0  0  0  0  0  0  0  0
    3.5924    2.0104    0.0000 O   0  0  0  0  0  0  0  0  0  0  0  0
    5.8567   -0.4106    0.0000 O   0  0  0  0  0  0  0  0  0  0  0  0
    4.9514    1.5688    0.0000 O   0  0  0  0  0  0  0  0  0  0  0  0
    3.3624    3.4625    0.0000 O   0  0  0  0  0  0  0  0  0  0  0  0
    3.2747   -2.2455    0.0000 O   0  0  0  0  0  0  0  0  0  0  0  0
    3.5924    4.9145    0.0000 O   0  0  0  0  0  0  0  0  0  0  0  0
    4.3744   -0.0548    0.0000 N   0  0  0  0  0  0  0  0  0  0  0  0
    4.6860   -2.0220    0.0000 N   0  0  0  0  0  0  0  0  0  0  0  0
    4.9441   -3.6516    0.0000 N   0  0  0  0  0  0  0  0  0  0  0  0
    3.8895   -0.7222    0.0000 C   0  0  0  0  0  0  0  0  0  0  0  0
    3.8895    0.6127    0.0000 C   0  0  0  0  0  0  0  0  0  0  0  0
    3.1049    0.3577    0.0000 C   0  0  0  0  0  0  0  0  0  0  0  0
    4.5570   -1.2071    0.0000 C   0  0  0  0  0  0  0  0  0  0  0  0
    5.0419   -0.5397    0.0000 C   0  0  0  0  0  0  0  0  0  0  0  0
    4.1445    1.3973    0.0000 C   0  0  0  0  0  0  0  0  0  0  0  0
    2.2854    0.4526    0.0000 C   0  0  0  0  0  0  0  0  0  0  0  0
    2.7615    1.1079    0.0000 C   0  0  0  0  0  0  0  0  0  0  0  0
    3.8474    2.7950    0.0000 C   0  0  0  0  0  0  0  0  0  0  0  0
    4.0449   -2.5411    0.0000 C   0  0  0  0  0  0  0  0  0  0  0  0
    4.6320    3.0500    0.0000 C   0  0  0  0  0  0  0  0  0  0  0  0
    4.6320    3.8750    0.0000 C   0  0  0  0  0  0  0  0  0  0  0  0
    3.8474    4.1299    0.0000 C   0  0  0  0  0  0  0  0  0  0  0  0
    4.1739   -3.3560    0.0000 C   0  0  0  0  0  0  0  0  0  0  0  0
    5.3465    2.6375    0.0000 C   0  0  0  0  0  0  0  0  0  0  0  0
    5.3465    4.2875    0.0000 C   0  0  0  0  0  0  0  0  0  0  0  0
    3.5328   -3.8752    0.0000 C   0  0  0  0  0  0  0  0  0  0  0  0
    6.0609    3.0500    0.0000 C   0  0  0  0  0  0  0  0  0  0  0  0
    6.0609    3.8750    0.0000 C   0  0  0  0  0  0  0  0  0  0  0  0
    3.6618   -4.6900    0.0000 C   0  0  0  0  0  0  0  0  0  0  0  0
    2.7626   -3.5795    0.0000 C   0  0  0  0  0  0  0  0  0  0  0  0
    3.0207   -5.2092    0.0000 C   0  0  0  0  0  0  0  0  0  0  0  0
    2.1214   -4.0987    0.0000 C   0  0  0  0  0  0  0  0  0  0  0  0
    2.2505   -4.9136    0.0000 C   0  0  0  0  0  0  0  0  0  0  0  0
    3.4356   -1.6132    0.0000 H   0  0  0  0  0  0  0  0  0  0  0  0
    0.0000    0.0000    0.0000 Cl  0  0  0  0  0  0  0  0  0  0  0  0
 11  1  1  0
  1 13  1  0
  2 16  1  0
  2 19  1  0
  3 15  2  0
  4 16  2  0
  5 19  1  0
  5 23  1  0
  6 20  2  0
  7 23  2  0
  8 11  1  0
  8 12  1  0
  8 15  1  0
 14  9  1  1
  9 20  1  0
 24 10  1  6
 11 14  1  0
 12 13  1  0
 12 16  1  6
 13 17  1  0
 13 18  1  0
 14 15  1  0
 19 21  1  0
 20 24  1  0
 21 22  1  0
 21 25  2  0
 22 23  1  0
 22 26  2  0
 24 27  1  0
 25 28  1  0
 26 29  1  0
 27 30  2  0
 27 31  1  0
 28 29  2  0
 30 32  1  0
 31 33  2  0
 32 34  2  0
 33 34  1  0
 11 35  1  6
M  END

> <chembl_id>
CHEMBL1411731

> <chembl_pref_name>
TALAMPICILLIN HYDROCHLORIDE

$$$$

     RDKit          2D

 34 36  0  0  0  0  0  0  0  0999 V2000
   -2.2087   -1.9908    0.0000 C   0  0  0  0  0  0  0  0  0  0  0  0
   -1.5699   -1.4679    0.0000 C   0  0  0  0  0  0  0  0  0  0  0  0
   -1.8693   -0.6986    0.0000 S   0  0  0  0  0  0  0  0  0  0  0  0
   -2.9046   -1.5422    0.0000 N   0  0  0  0  0  0  0  0  0  0  0  0
   -2.6927   -0.7488    0.0000 C   0  0  0  0  0  0  0  0  0  0  0  0
   -3.4902   -0.5360    0.0000 C   0  0  0  0  0  0  0  0  0  0  0  0
   -3.7021   -1.3293    0.0000 C   0  0  0  0  0  0  0  0  0  0  0  0
   -4.4154   -1.7447    0.0000 O   0  0  0  0  0  0  0  0  0  0  0  0
   -3.9005    0.1805    0.0000 C   0  0  0  0  0  0  0  0  0  0  0  0
   -3.4883    0.8954    0.0000 C   0  0  0  0  0  0  0  0  0  0  0  0
   -2.6688    0.8942    0.0000 N   0  0  0  0  0  0  0  0  0  0  0  0
   -2.2567    1.6077    0.0000 C   0  0  0  0  0  0  0  0  0  0  0  0
   -2.6680    2.3216    0.0000 C   0  0  0  0  0  0  0  0  0  0  0  0
   -3.4980    2.3151    0.0000 C   0  0  0  0  0  0  0  0  0  0  0  0
   -3.9046    1.6007    0.0000 C   0  0  0  0  0  0  0  0  0  0  0  0
   -0.8695   -1.0267    0.0000 C   0  0  0  0  0  0  0  0  0  0  0  0
   -1.3350   -2.2510    0.0000 C   0  0  0  0  0  0  0  0  0  0  0  0
   -0.1415   -1.4161    0.0000 O   0  0  0  0  0  0  0  0  0  0  0  0
    0.5597   -0.9745    0.0000 C   0  0  0  0  0  0  0  0  0  0  0  0
    1.2877   -1.3639    0.0000 C   0  0  0  0  0  0  0  0  0  0  0  0
    0.5309   -0.1515    0.0000 O   0  0  0  0  0  0  0  0  0  0  0  0
    1.9879   -0.9262    0.0000 C   0  0  0  0  0  0  0  0  0  0  0  0
    2.7150   -1.3151    0.0000 C   0  0  0  0  0  0  0  0  0  0  0  0
    3.4105   -0.8777    0.0000 C   0  0  0  0  0  0  0  0  0  0  0  0
    3.3824   -0.0534    0.0000 C   0  0  0  0  0  0  0  0  0  0  0  0
    2.6498    0.3305    0.0000 C   0  0  0  0  0  0  0  0  0  0  0  0
    1.9549   -0.1094    0.0000 C   0  0  0  0  0  0  0  0  0  0  0  0
   -2.1628   -2.8147    0.0000 C   0  0  0  0  0  0  0  0  0  0  0  0
   -2.8510   -3.2654    0.0000 O   0  0  0  0  0  0  0  0  0  0  0  0
   -1.4236   -3.1849    0.0000 O   0  0  0  0  0  0  0  0  0  0  0  0
   -2.5035    0.0555    0.0000 H   0  0  0  0  0  0  0  0  0  0  0  0
   -1.8765    0.1245    0.0000 O   0  0  0  0  0  0  0  0  0  0  0  0
   -1.0794   -0.4816    0.0000 O   0  0  0  0  0  0  0  0  0  0  0  0
    2.3333   -2.8315    0.0000 Na  0  0  0  0  0 15  0  0  0  0  0  0
  4  1  1  0
  1  2  1  0
  2  3  1  0
  3  5  1  0
  4  5  1  0
  5  6  1  0
  6  7  1  0
  7  4  1  0
  7  8  2  0
  6  9  2  0
  9 10  1  0
 10 11  2  0
 11 12  1  0
 12 13  2  0
 13 14  1  0
 14 15  2  0
 15 10  1  0
  2 16  1  1
  2 17  1  0
 16 18  1  0
 18 19  1  0
 19 20  1  0
 19 21  2  0
 20 22  1  0
 22 23  2  0
 23 24  1  0
 24 25  2  0
 25 26  1  0
 26 27  2  0
 27 22  1  0
  1 28  1  6
 28 29  2  0
 28 30  1  0
  5 31  1  6
  3 32  2  0
  3 33  2  0
M  CHG  2  30  -1  34   1
M  END

> <chembl_id>
CHEMBL515016

> <chembl_pref_name>
None

$$$$

     RDKit          2D

 22 23  0  0  1  0  0  0  0  0999 V2000
    5.7917   -4.6042    0.0000 N   0  0  0  0  0  0  0  0  0  0  0  0
    5.7917   -5.3250    0.0000 C   0  0  0  0  0  0  0  0  0  0  0  0
    5.0792   -4.6042    0.0000 C   0  0  0  0  0  0  0  0  0  0  0  0
    5.0792   -5.3250    0.0000 C   0  0  0  0  0  0  0  0  0  0  0  0
    6.4750   -4.3917    0.0000 C   0  0  0  0  0  0  0  0  0  0  0  0
    6.4750   -5.5500    0.0000 S   0  0  0  0  0  0  0  0  0  0  0  0
    6.8792   -4.9750    0.0000 C   0  0  0  0  0  0  0  0  0  0  0  0
    7.0542   -3.9667    0.0000 C   0  0  0  0  0  0  0  0  0  0  0  0
    4.3875   -5.1417    0.0000 N   0  0  0  0  0  0  0  0  0  0  0  0
    4.5667   -4.1125    0.0000 O   0  0  0  0  0  0  0  0  0  0  0  0
    3.8917   -5.6542    0.0000 C   0  0  0  0  0  0  0  0  0  0  0  0
    7.7000   -4.2667    0.0000 O   0  0  0  0  0  0  0  0  0  0  0  0
    6.9792   -3.2625    0.0000 O   0  0  0  0  0  0  0  0  0  0  0  0
    4.1292   -6.3375    0.0000 O   0  0  0  0  0  0  0  0  0  0  0  0
    2.0667   -4.0792    0.0000 C   0  0  0  0  0  0  0  0  0  0  0  0
    1.3792   -3.9542    0.0000 C   0  0  0  0  0  0  0  0  0  0  0  0
    7.4875   -4.6042    0.0000 C   0  0  0  0  0  0  0  0  0  0  0  0
    7.4542   -5.3917    0.0000 C   0  0  0  0  0  0  0  0  0  0  0  0
    2.9750   -4.8417    0.0000 S   0  0  0  0  0  0  0  0  0  0  0  0
    3.2167   -5.5167    0.0000 C   0  0  0  0  0  0  0  0  0  0  0  0
    2.3125   -4.7292    0.0000 C   0  0  0  0  0  0  0  0  0  0  0  0
    5.6333   -6.3124    0.0000 H   0  0  0  0  0  0  0  0  0  0  0  0
  2  1  1  0
  3  1  1  0
  4  3  1  0
  5  1  1  0
  6  2  1  0
  7  5  1  0
  5  8  1  1
  4  9  1  6
 10  3  2  0
 11  9  1  0
 12  8  1  0
 13  8  2  0
 14 11  2  0
 15 21  1  0
 16 15  2  0
 17  7  1  0
 18  7  1  0
 19 20  1  0
 20 11  1  0
 21 19  1  0
  6  7  1  0
  2  4  1  0
  2 22  1  1
M  END

> <chembl_id>
CHEMBL2105909

> <chembl_pref_name>
ALMECILLIN

$$$$

     RDKit          2D

 28 29  0  0  0  0  0  0  0  0999 V2000
    7.5542   -2.1250    0.0000 K   0  0  0  0  0 15  0  0  0  0  0  0
    5.2750   -3.3667    0.0000 N   0  0  0  0  0  0  0  0  0  0  0  0
    5.2750   -4.0875    0.0000 C   0  0  0  0  0  0  0  0  0  0  0  0
    4.5542   -3.3667    0.0000 C   0  0  0  0  0  0  0  0  0  0  0  0
    4.5542   -4.0875    0.0000 C   0  0  0  0  0  0  0  0  0  0  0  0
    5.9417   -3.1542    0.0000 C   0  0  0  0  0  0  0  0  0  0  0  0
    5.9417   -4.3000    0.0000 S   0  0  0  0  0  0  0  0  0  0  0  0
    6.3542   -3.7292    0.0000 C   0  0  0  0  0  0  0  0  0  0  0  0
    3.9667   -5.1542    0.0000 C   0  0  0  0  0  0  0  0  0  0  0  0
    3.9667   -4.4417    0.0000 N   0  0  0  0  0  0  0  0  0  0  0  0
    3.3542   -5.5250    0.0000 C   0  0  0  0  0  0  0  0  0  0  0  0
    5.9292   -2.4375    0.0000 C   0  0  0  0  0  0  0  0  0  0  0  0
    2.7667   -5.1625    0.0000 C   0  0  0  0  0  0  0  0  0  0  0  0
    4.1167   -2.7500    0.0000 O   0  0  0  0  0  0  0  0  0  0  0  0
    4.5792   -5.5042    0.0000 O   0  0  0  0  0  0  0  0  0  0  0  0
    6.5542   -2.0917    0.0000 O   0  0  0  0  0  0  0  0  0  0  0  0
    3.3750   -6.2167    0.0000 C   0  0  0  0  0  0  0  0  0  0  0  0
    5.3167   -2.0875    0.0000 O   0  0  0  0  0  0  0  0  0  0  0  0
    2.1292   -5.5167    0.0000 O   0  0  0  0  0  0  0  0  0  0  0  0
    2.7417   -4.4667    0.0000 O   0  0  0  0  0  0  0  0  0  0  0  0
    6.9292   -4.1500    0.0000 C   0  0  0  0  0  0  0  0  0  0  0  0
    6.9625   -3.3542    0.0000 C   0  0  0  0  0  0  0  0  0  0  0  0
    3.9667   -6.5542    0.0000 C   0  0  0  0  0  0  0  0  0  0  0  0
    2.7667   -6.5750    0.0000 C   0  0  0  0  0  0  0  0  0  0  0  0
    3.9792   -7.2667    0.0000 C   0  0  0  0  0  0  0  0  0  0  0  0
    2.7667   -7.2667    0.0000 C   0  0  0  0  0  0  0  0  0  0  0  0
    3.3667   -7.6292    0.0000 C   0  0  0  0  0  0  0  0  0  0  0  0
    5.2750   -4.7875    0.0000 H   0  0  0  0  0  0  0  0  0  0  0  0
  3  2  1  0
  4  2  1  0
  5  4  1  0
  6  2  1  0
  7  3  1  0
  8  6  1  0
  9 10  1  0
  5 10  1  6
 11  9  1  0
  6 12  1  1
 13 11  1  0
 14  4  2  0
 15  9  2  0
 16 12  1  0
 17 11  1  0
 18 12  2  0
 19 13  2  0
 20 13  1  0
 21  8  1  0
 22  8  1  0
 23 17  2  0
 24 17  1  0
 25 23  1  0
 26 24  2  0
 27 25  2  0
  3 28  1  1
  7  8  1  0
  3  5  1  0
 26 27  1  0
M  CHG  2   1   1  16  -1
M  END

> <chembl_id>
CHEMBL2105992

> <chembl_pref_name>
CARBENICILLIN POTASSIUM

$$$$

     RDKit          2D

 28 29  0  0  0  0  0  0  0  0999 V2000
   -2.3539   -4.4032    0.0000 K   0  0  0  0  0 15  0  0  0  0  0  0
    1.9897    0.8303    0.0000 N   0  0  0  0  0  0  0  0  0  0  0  0
    1.7762    0.0334    0.0000 C   0  0  0  0  0  0  0  0  0  0  0  0
    1.1929    1.0438    0.0000 C   0  0  0  0  0  0  0  0  0  0  0  0
    0.9793    0.2469    0.0000 C   0  0  0  0  0  0  0  0  0  0  0  0
    2.8136    0.8735    0.0000 C   0  0  0  0  0  0  0  0  0  0  0  0
    2.4681   -0.4159    0.0000 S   0  0  0  0  0  0  0  0  0  0  0  0
    3.1093    0.1033    0.0000 C   0  0  0  0  0  0  0  0  0  0  0  0
    0.2649   -0.1656    0.0000 N   0  0  0  0  0  0  0  0  0  0  0  0
   -0.4496    0.2469    0.0000 C   0  0  0  0  0  0  0  0  0  0  0  0
    3.2629    1.5654    0.0000 C   0  0  0  0  0  0  0  0  0  0  0  0
    0.7804    1.7583    0.0000 O   0  0  0  0  0  0  0  0  0  0  0  0
   -1.1641   -0.1656    0.0000 C   0  0  0  0  0  0  0  0  0  0  0  0
   -1.8786    0.2469    0.0000 O   0  0  0  0  0  0  0  0  0  0  0  0
    4.0868    1.5222    0.0000 O   0  0  0  0  0  0  0  0  0  0  0  0
   -0.4496    1.0719    0.0000 O   0  0  0  0  0  0  0  0  0  0  0  0
    2.8884    2.3005    0.0000 O   0  0  0  0  0  0  0  0  0  0  0  0
    3.8443    0.4778    0.0000 C   0  0  0  0  0  0  0  0  0  0  0  0
    3.5586   -0.5886    0.0000 C   0  0  0  0  0  0  0  0  0  0  0  0
   -2.5930   -0.1656    0.0000 C   0  0  0  0  0  0  0  0  0  0  0  0
   -1.1641   -0.9906    0.0000 C   0  0  0  0  0  0  0  0  0  0  0  0
   -3.3075    0.2469    0.0000 C   0  0  0  0  0  0  0  0  0  0  0  0
   -2.5930   -0.9906    0.0000 C   0  0  0  0  0  0  0  0  0  0  0  0
   -1.8786   -1.4031    0.0000 C   0  0  0  0  0  0  0  0  0  0  0  0
   -4.0220   -0.1656    0.0000 C   0  0  0  0  0  0  0  0  0  0  0  0
   -3.3075   -1.4031    0.0000 C   0  0  0  0  0  0  0  0  0  0  0  0
   -4.0220   -0.9906    0.0000 C   0  0  0  0  0  0  0  0  0  0  0  0
    1.4407   -0.7203    0.0000 H   0  0  0  0  0  0  0  0  0  0  0  0
  3  2  1  0
  4  2  1  0
  5  4  1  0
  6  2  1  0
  7  3  1  0
  8  6  1  0
  5  9  1  6
 10  9  1  0
  6 11  1  1
 12  4  2  0
 13 10  1  0
 13 14  1  0
 15 11  1  0
 16 10  2  0
 17 11  2  0
 18  8  1  0
 19  8  1  0
 20 14  1  0
 13 21  1  6
 22 20  2  0
 23 20  1  0
 24 21  1  0
 25 22  1  0
 26 23  2  0
 27 25  2  0
  7  8  1  0
  3  5  1  0
 26 27  1  0
  3 28  1  1
M  CHG  2   1   1  15  -1
M  END

> <chembl_id>
CHEMBL3989853

> <chembl_pref_name>
LEVOPROPYLCILLIN POTASSIUM

$$$$

     RDKit          2D

 26 28  0  0  0  0  0  0  0  0999 V2000
   28.7929   -4.4297    0.0000 N   0  0  0  0  0  0  0  0  0  0  0  0
   28.7929   -3.6095    0.0000 C   0  0  0  0  0  0  0  0  0  0  0  0
   27.9686   -4.4338    0.0000 C   0  0  0  0  0  0  0  0  0  0  0  0
   27.9686   -3.6095    0.0000 C   0  0  0  0  0  0  0  0  0  0  0  0
   29.5798   -4.6836    0.0000 C   0  0  0  0  0  0  0  0  0  0  0  0
   29.5673   -3.3472    0.0000 S   0  0  0  0  0  0  0  0  0  0  0  0
   30.0627   -4.0175    0.0000 C   0  0  0  0  0  0  0  0  0  0  0  0
   27.3816   -3.0225    0.0000 N   0  0  0  0  0  0  0  0  0  0  0  0
   30.0039   -5.3918    0.0000 C   0  0  0  0  0  0  0  0  0  0  0  0
   26.6571   -3.4222    0.0000 C   0  0  0  0  0  0  0  0  0  0  0  0
   27.3816   -5.0167    0.0000 O   0  0  0  0  0  0  0  0  0  0  0  0
   30.8325   -5.3803    0.0000 O   0  0  0  0  0  0  0  0  0  0  0  0
   26.6405   -4.2465    0.0000 O   0  0  0  0  0  0  0  0  0  0  0  0
   25.2333   -3.3847    0.0000 O   0  0  0  0  0  0  0  0  0  0  0  0
   25.9578   -2.9850    0.0000 C   0  0  0  0  0  0  0  0  0  0  0  0
   29.5993   -6.1115    0.0000 O   0  0  0  0  0  0  0  0  0  0  0  0
   30.7788   -4.4297    0.0000 C   0  0  0  0  0  0  0  0  0  0  0  0
   30.6414   -3.4305    0.0000 C   0  0  0  0  0  0  0  0  0  0  0  0
   24.5214   -2.9601    0.0000 C   0  0  0  0  0  0  0  0  0  0  0  0
   23.8095   -3.3555    0.0000 C   0  0  0  0  0  0  0  0  0  0  0  0
   24.5547   -2.1358    0.0000 C   0  0  0  0  0  0  0  0  0  0  0  0
   23.8470   -1.6986    0.0000 C   0  0  0  0  0  0  0  0  0  0  0  0
   23.1059   -2.9309    0.0000 C   0  0  0  0  0  0  0  0  0  0  0  0
   23.1225   -2.0982    0.0000 C   0  0  0  0  0  0  0  0  0  0  0  0
   28.7804   -2.7810    0.0000 H   0  0  0  0  0  0  0  0  0  0  0  0
   30.0302   -6.8385    0.0000 C   0  0  0  0  0  0  0  0  0  0  0  0
  2  1  1  0
  3  1  1  0
  4  3  1  0
  5  1  1  0
  6  2  1  0
  7  5  1  0
  4  8  1  1
  5  9  1  6
 10  8  1  0
 11  3  2  0
 12  9  2  0
 13 10  2  0
 14 15  1  0
 15 10  1  0
 16  9  1  0
 17  7  1  0
 18  7  1  0
 19 14  1  0
 20 19  1  0
 21 19  2  0
 22 21  1  0
 23 20  2  0
 24 22  2  0
  2 25  1  6
  7  6  1  0
  2  4  1  0
 23 24  1  0
 16 26  1  0
M  END

> <chembl_id>
CHEMBL3114798

> <chembl_pref_name>
None

$$$$

     RDKit          2D

 44 47  0  0  1  0  0  0  0  0999 V2000
    4.4965   -9.8312    0.0000 C   0  0  0  0  0  0  0  0  0  0  0  0
    5.2104  -10.2448    0.0000 C   0  0  0  0  0  0  0  0  0  0  0  0
    4.4978   -9.0062    0.0000 C   0  0  0  0  0  0  0  0  0  0  0  0
    5.9609   -9.9098    0.0000 O   0  0  0  0  0  0  0  0  0  0  0  0
    5.2917  -11.0647    0.0000 C   0  0  0  0  0  0  0  0  0  0  0  0
    6.0984  -11.2376    0.0000 C   0  0  0  0  0  0  0  0  0  0  0  0
    6.5103  -10.5231    0.0000 C   0  0  0  0  0  0  0  0  0  0  0  0
    7.3172  -10.6940    0.0000 O   0  0  0  0  0  0  0  0  0  0  0  0
    7.4040  -11.5143    0.0000 C   0  0  0  0  0  0  0  0  0  0  0  0
    6.6507  -11.8501    0.0000 O   0  0  0  0  0  0  0  0  0  0  0  0
    8.1993  -11.3054    0.0000 C   0  0  0  0  0  0  0  0  0  0  0  0
    7.8118  -12.2346    0.0000 C   0  0  0  0  0  0  0  0  0  0  0  0
    3.7840   -8.5925    0.0000 O   0  0  0  0  0  0  0  0  0  0  0  0
    3.7853   -7.7675    0.0000 C   0  0  0  0  0  0  0  0  0  0  0  0
    3.0715   -7.3539    0.0000 O   0  0  0  0  0  0  0  0  0  0  0  0
    4.5004   -7.3562    0.0000 C   0  0  0  0  0  0  0  0  0  0  0  0
    6.9182   -9.8112    0.0000 H   0  0  0  0  0  0  0  0  0  0  0  0
    5.6807  -11.9570    0.0000 H   0  0  0  0  0  0  0  0  0  0  0  0
    3.0676   -9.8334    0.0000 C   0  0  0  0  0  0  0  0  0  0  0  0
    3.7827  -10.2448    0.0000 O   0  0  0  0  0  0  0  0  0  0  0  0
    0.2097   -9.8271    0.0000 N   0  0  0  0  0  0  0  0  0  0  0  0
    0.9233  -10.2412    0.0000 C   0  0  0  0  0  0  0  0  0  0  0  0
    0.9214  -11.0662    0.0000 O   0  0  0  0  0  0  0  0  0  0  0  0
    1.6387   -9.8302    0.0000 C   0  0  0  0  0  0  0  0  0  0  0  0
    2.3522  -10.2443    0.0000 C   0  0  0  0  0  0  0  0  0  0  0  0
   -0.5057  -10.2380    0.0000 C   0  0  0  0  0  0  0  0  0  0  0  0
   -0.7196  -11.0317    0.0000 C   0  0  0  0  0  0  0  0  0  0  0  0
   -1.5160  -10.8164    0.0000 N   0  0  0  0  0  0  0  0  0  0  0  0
   -1.3052  -10.0227    0.0000 C   0  0  0  0  0  0  0  0  0  0  0  0
   -1.9949   -9.5769    0.0000 S   0  0  0  0  0  0  0  0  0  0  0  0
   -2.6321  -10.0951    0.0000 C   0  0  0  0  0  0  0  0  0  0  0  0
   -2.3360  -10.8611    0.0000 C   0  0  0  0  0  0  0  0  0  0  0  0
   -3.3500  -10.5000    0.0000 C   0  0  0  0  0  0  0  0  0  0  0  0
   -3.2208   -9.5042    0.0000 C   0  0  0  0  0  0  0  0  0  0  0  0
   -2.7838  -11.5540    0.0000 C   0  0  0  0  0  0  0  0  0  0  0  0
   -3.6096  -11.5159    0.0000 O   0  0  0  0  0  0  0  0  0  0  0  0
   -2.4095  -12.2916    0.0000 O   0  0  0  0  0  0  0  0  0  0  0  0
   -0.3085  -11.7469    0.0000 O   0  0  0  0  0  0  0  0  0  0  0  0
    3.0679   -9.0084    0.0000 O   0  0  0  0  0  0  0  0  0  0  0  0
    4.6766  -11.6144    0.0000 O   0  0  0  0  0  0  0  0  0  0  0  0
    4.8450  -12.4221    0.0000 C   0  0  0  0  0  0  0  0  0  0  0  0
    4.2299  -12.9718    0.0000 C   0  0  0  0  0  0  0  0  0  0  0  0
    5.6287  -12.6799    0.0000 O   0  0  0  0  0  0  0  0  0  0  0  0
    4.3984  -13.7794    0.0000 C   0  0  0  0  0  0  0  0  0  0  0  0
  6  5  1  0
 22 23  2  0
  9 11  1  0
 22 24  1  0
  5  2  1  0
 24 25  1  0
 25 19  1  0
  9 12  1  0
 26 21  1  6
 26 29  1  0
  6  7  1  0
 28 27  1  0
 27 26  1  0
 28 29  1  0
  3 13  1  0
  1  3  1  0
 13 14  1  0
  2  4  1  0
 14 15  2  0
 29 30  1  0
 30 31  1  0
 31 32  1  0
 32 28  1  0
  2  1  1  1
 31 33  1  0
 14 16  1  0
 31 34  1  0
 32 35  1  1
  7 17  1  6
  4  7  1  0
 35 36  1  0
 35 37  2  0
  6 18  1  6
 27 38  2  0
  7  8  1  0
 19 39  2  0
 20  1  1  0
  8  9  1  0
  5 40  1  1
 19 20  1  0
 40 41  1  0
  9 10  1  0
 41 42  1  0
  6 10  1  0
 41 43  2  0
 21 22  1  0
 42 44  2  0
M  END

> <chembl_id>
CHEMBL445679

> <chembl_pref_name>
None

$$$$

     RDKit          2D

 30 33  0  0  1  0  0  0  0  0999 V2000
    1.8167   -0.0042    0.0000 N   0  0  0  0  0  0  0  0  0  0  0  0
    2.1542   -0.9167    0.0000 C   0  0  0  0  0  0  0  0  0  0  0  0
    0.8917   -0.3375    0.0000 C   0  0  0  0  0  0  0  0  0  0  0  0
    1.2292   -1.2542    0.0000 C   0  0  0  0  0  0  0  0  0  0  0  0
   -1.3208   -0.5375    0.0000 C   0  0  0  0  0  0  0  0  0  0  0  0
   -0.8208    0.3000    0.0000 C   0  0  0  0  0  0  0  0  0  0  0  0
    2.5792    0.5958    0.0000 C   0  0  0  0  0  0  0  0  0  0  0  0
    3.1292   -0.8542    0.0000 S   0  0  0  0  0  0  0  0  0  0  0  0
    3.4042    0.0458    0.0000 C   0  0  0  0  0  0  0  0  0  0  0  0
   -2.3333   -0.5375    0.0000 N   0  0  0  0  0  0  0  0  0  0  0  0
   -1.3000    1.1375    0.0000 N   0  0  0  0  0  0  0  0  0  0  0  0
   -0.8458   -1.3750    0.0000 C   0  0  0  0  0  0  0  0  0  0  0  0
    0.1000   -1.4667    0.0000 N   0  0  0  0  0  0  0  0  0  0  0  0
   -0.0250    0.5750    0.0000 C   0  0  0  0  0  0  0  0  0  0  0  0
    3.1417    1.4125    0.0000 C   0  0  0  0  0  0  0  0  0  0  0  0
   -2.8208    0.3208    0.0000 C   0  0  0  0  0  0  0  0  0  0  0  0
   -2.3333    1.1458    0.0000 C   0  0  0  0  0  0  0  0  0  0  0  0
    0.1000   -0.2917    0.0000 O   0  0  0  0  0  0  0  0  0  0  0  0
   -1.5625   -2.0292    0.0000 O   0  0  0  0  0  0  0  0  0  0  0  0
    0.4667   -0.2542    0.0000 O   0  0  0  0  0  0  0  0  0  0  0  0
    2.7167    2.2833    0.0000 O   0  0  0  0  0  0  0  0  0  0  0  0
    0.3542    1.4125    0.0000 O   0  0  0  0  0  0  0  0  0  0  0  0
    4.1042    1.3208    0.0000 O   0  0  0  0  0  0  0  0  0  0  0  0
    4.0000    0.7958    0.0000 C   0  0  0  0  0  0  0  0  0  0  0  0
    4.3417   -0.2167    0.0000 C   0  0  0  0  0  0  0  0  0  0  0  0
   -3.8208    0.3208    0.0000 C   0  0  0  0  0  0  0  0  0  0  0  0
   -2.8250    2.0208    0.0000 C   0  0  0  0  0  0  0  0  0  0  0  0
   -4.3458    1.1708    0.0000 C   0  0  0  0  0  0  0  0  0  0  0  0
   -3.8958    2.0083    0.0000 C   0  0  0  0  0  0  0  0  0  0  0  0
    2.3597   -1.8954    0.0000 H   0  0  0  0  0  0  0  0  0  0  0  0
  2  1  1  0
  3  1  1  0
  4  3  1  0
  5 12  1  0
  6  5  2  0
  7  1  1  0
  8  2  1  0
  9  7  1  0
 10  5  1  0
 11  6  1  0
 12 13  1  0
  4 13  1  6
 14  6  1  0
  7 15  1  1
 16 10  2  0
 17 16  1  0
 18  3  2  0
 19 12  2  0
 20 14  2  0
 21 15  2  0
 22 14  1  0
 23 15  1  0
 24  9  1  0
 25  9  1  0
 26 16  1  0
 27 17  1  0
 28 26  2  0
 29 28  1  0
  8  9  1  0
  2  4  1  0
 11 17  2  0
 27 29  2  0
  2 30  1  1
M  END

> <chembl_id>
CHEMBL2104733

> <chembl_pref_name>
QUINACILLIN

$$$$

     RDKit          2D

 24 25  0  0  1  0  0  0  0  0999 V2000
    3.2375    1.2250    0.0000 S   0  0  0  0  0  0  0  0  0  0  0  0
    2.4417    0.1458    0.0000 N   0  0  0  0  0  0  0  0  0  0  0  0
    3.7167    0.5500    0.0000 C   0  0  0  0  0  0  0  0  0  0  0  0
    2.4417    0.9708    0.0000 C   0  0  0  0  0  0  0  0  0  0  0  0
    3.2375   -0.1125    0.0000 C   0  0  0  0  0  0  0  0  0  0  0  0
    1.6250    0.1458    0.0000 C   0  0  0  0  0  0  0  0  0  0  0  0
    1.6250    0.9708    0.0000 C   0  0  0  0  0  0  0  0  0  0  0  0
    3.4917   -0.9000    0.0000 C   0  0  0  0  0  0  0  0  0  0  0  0
    3.8167    1.8125    0.0000 O   0  0  0  0  0  0  0  0  0  0  0  0
    2.8167    1.9375    0.0000 O   0  0  0  0  0  0  0  0  0  0  0  0
    5.6167   -2.8125    0.0000 C   0  0  0  0  0  0  0  0  0  0  0  0
    1.0417   -0.4417    0.0000 O   0  0  0  0  0  0  0  0  0  0  0  0
    6.4167   -2.9792    0.0000 C   0  0  0  0  0  0  0  0  0  0  0  0
    4.3000   -1.0667    0.0000 O   0  0  0  0  0  0  0  0  0  0  0  0
    5.3542   -2.0250    0.0000 O   0  0  0  0  0  0  0  0  0  0  0  0
    4.5542   -1.8542    0.0000 C   0  0  0  0  0  0  0  0  0  0  0  0
    2.9375   -1.5125    0.0000 O   0  0  0  0  0  0  0  0  0  0  0  0
    5.0292   -3.3917    0.0000 O   0  0  0  0  0  0  0  0  0  0  0  0
    4.4292    0.9708    0.0000 C   0  0  0  0  0  0  0  0  0  0  0  0
    4.3042   -0.0292    0.0000 C   0  0  0  0  0  0  0  0  0  0  0  0
    6.9750   -2.3625    0.0000 C   0  0  0  0  0  0  0  0  0  0  0  0
    7.2167   -3.1917    0.0000 C   0  0  0  0  0  0  0  0  0  0  0  0
    6.6750   -3.7667    0.0000 C   0  0  0  0  0  0  0  0  0  0  0  0
    2.2877    1.9589    0.0000 H   0  0  0  0  0  0  0  0  0  0  0  0
  2  4  1  0
  3  1  1  0
  4  1  1  0
  5  3  1  0
  6  7  1  0
  7  4  1  0
  5  8  1  6
  9  1  2  0
 10  1  2  0
 11 15  1  0
 12  6  2  0
 13 11  1  0
 14  8  1  0
 15 16  1  0
 16 14  1  0
 17  8  2  0
 18 11  2  0
  3 19  1  0
 20  3  1  0
 21 13  1  0
 22 13  1  0
 23 13  1  0
  2  5  1  0
  2  6  1  0
  4 24  1  6
M  END

> <chembl_id>
CHEMBL423875

> <chembl_pref_name>
SULBACTAM PIVOXIL

$$$$

     RDKit          2D

 34 35  0  0  0  0  0  0  0  0999 V2000
  -10.3714   -5.3920    0.0000 Cl  0  0  0  0  0  0  0  0  0  0  0  0
  -15.1919   -3.9639    0.0000 N   0  0  0  0  0  0  0  0  0  0  0  0
  -15.1919   -3.1369    0.0000 C   0  0  0  0  0  0  0  0  0  0  0  0
  -16.0188   -3.9639    0.0000 C   0  0  0  0  0  0  0  0  0  0  0  0
  -16.0188   -3.1369    0.0000 C   0  0  0  0  0  0  0  0  0  0  0  0
  -14.4108   -4.2145    0.0000 C   0  0  0  0  0  0  0  0  0  0  0  0
  -14.4108   -2.8822    0.0000 S   0  0  0  0  0  0  0  0  0  0  0  0
  -13.9263   -3.5462    0.0000 C   0  0  0  0  0  0  0  0  0  0  0  0
  -16.6035   -2.5564    0.0000 N   0  0  0  0  0  0  0  0  0  0  0  0
  -17.4053   -2.7694    0.0000 C   0  0  0  0  0  0  0  0  0  0  0  0
  -14.1520   -5.0039    0.0000 C   0  0  0  0  0  0  0  0  0  0  0  0
  -14.7659   -7.7854    0.0000 C   0  0  0  0  0  0  0  0  0  0  0  0
  -17.9859   -2.1805    0.0000 C   0  0  0  0  0  0  0  0  0  0  0  0
  -16.6035   -4.5402    0.0000 O   0  0  0  0  0  0  0  0  0  0  0  0
  -15.3297   -8.3951    0.0000 C   0  0  0  0  0  0  0  0  0  0  0  0
  -17.6183   -3.5505    0.0000 O   0  0  0  0  0  0  0  0  0  0  0  0
  -14.7115   -5.6178    0.0000 O   0  0  0  0  0  0  0  0  0  0  0  0
  -15.0164   -7.0085    0.0000 O   0  0  0  0  0  0  0  0  0  0  0  0
  -14.4610   -6.4029    0.0000 C   0  0  0  0  0  0  0  0  0  0  0  0
  -13.3501   -5.1792    0.0000 O   0  0  0  0  0  0  0  0  0  0  0  0
  -13.9640   -7.9733    0.0000 O   0  0  0  0  0  0  0  0  0  0  0  0
  -18.7878   -2.3852    0.0000 C   0  0  0  0  0  0  0  0  0  0  0  0
  -17.7729   -1.3953    0.0000 N   0  0  0  0  0  0  0  0  0  0  0  0
  -13.2832   -4.0642    0.0000 C   0  0  0  0  0  0  0  0  0  0  0  0
  -13.4378   -2.8739    0.0000 C   0  0  0  0  0  0  0  0  0  0  0  0
  -15.8893   -9.0008    0.0000 C   0  0  0  0  0  0  0  0  0  0  0  0
  -14.7240   -8.9506    0.0000 C   0  0  0  0  0  0  0  0  0  0  0  0
  -15.9311   -7.8356    0.0000 C   0  0  0  0  0  0  0  0  0  0  0  0
  -19.3725   -1.8088    0.0000 C   0  0  0  0  0  0  0  0  0  0  0  0
  -19.0091   -3.1871    0.0000 C   0  0  0  0  0  0  0  0  0  0  0  0
  -19.8027   -3.4001    0.0000 C   0  0  0  0  0  0  0  0  0  0  0  0
  -20.1618   -2.0177    0.0000 C   0  0  0  0  0  0  0  0  0  0  0  0
  -20.3874   -2.8112    0.0000 C   0  0  0  0  0  0  0  0  0  0  0  0
  -15.1919   -2.3100    0.0000 H   0  0  0  0  0  0  0  0  0  0  0  0
  3  2  1  0
  4  2  1  0
  5  4  1  0
  6  2  1  0
  7  3  1  0
  8  6  1  0
  5  9  1  1
 10  9  1  0
  6 11  1  6
 12 18  1  0
 13 10  1  0
 14  4  2  0
 15 12  1  0
 16 10  2  0
 17 11  1  0
 18 19  1  0
 19 17  1  0
 20 11  2  0
 21 12  2  0
 22 13  1  0
 13 23  1  1
 24  8  1  0
 25  8  1  0
 26 15  1  0
 27 15  1  0
 28 15  1  0
 29 22  2  0
 30 22  1  0
 31 30  2  0
 32 29  1  0
 33 31  1  0
  3 34  1  6
  7  8  1  0
  3  5  1  0
 32 33  2  0
M  END

> <chembl_id>
CHEMBL3989898

> <chembl_pref_name>
PIVAMPICILLIN HYDROCHLORIDE

$$$$

     RDKit          2D

 34 36  0  0  1  0  0  0  0  0999 V2000
   -0.4833   -0.4167    0.0000 N   0  0  0  0  0  0  0  0  0  0  0  0
   -0.4833   -1.0917    0.0000 C   0  0  0  0  0  0  0  0  0  0  0  0
   -1.1583   -0.4167    0.0000 C   0  0  0  0  0  0  0  0  0  0  0  0
   -1.1583   -1.1000    0.0000 C   0  0  0  0  0  0  0  0  0  0  0  0
    0.1792   -0.2125    0.0000 C   0  0  0  0  0  0  0  0  0  0  0  0
    0.1917   -1.3042    0.0000 S   0  0  0  0  0  0  0  0  0  0  0  0
    0.5750   -0.7667    0.0000 C   0  0  0  0  0  0  0  0  0  0  0  0
   -2.5625   -0.6417    0.0000 C   0  0  0  0  0  0  0  0  0  0  0  0
   -1.9583   -1.0792    0.0000 N   0  0  0  0  0  0  0  0  0  0  0  0
   -3.1625   -0.9542    0.0000 C   0  0  0  0  0  0  0  0  0  0  0  0
    0.7417    0.1958    0.0000 C   0  0  0  0  0  0  0  0  0  0  0  0
   -1.6333    0.0833    0.0000 O   0  0  0  0  0  0  0  0  0  0  0  0
   -2.5625   -0.0750    0.0000 O   0  0  0  0  0  0  0  0  0  0  0  0
   -3.1625   -1.6292    0.0000 C   0  0  0  0  0  0  0  0  0  0  0  0
   -3.7458   -0.5917    0.0000 C   0  0  0  0  0  0  0  0  0  0  0  0
    0.7542    0.8625    0.0000 O   0  0  0  0  0  0  0  0  0  0  0  0
    1.3750   -0.0667    0.0000 O   0  0  0  0  0  0  0  0  0  0  0  0
    1.1875   -0.4250    0.0000 C   0  0  0  0  0  0  0  0  0  0  0  0
    1.1375   -1.1750    0.0000 C   0  0  0  0  0  0  0  0  0  0  0  0
    1.6125    1.2833    0.0000 N   0  0  0  0  0  0  0  0  0  0  0  0
   -2.5958   -1.9792    0.0000 O   0  0  0  0  0  0  0  0  0  0  0  0
   -3.7333    0.0833    0.0000 O   0  0  0  0  0  0  0  0  0  0  0  0
    2.0667    0.2000    0.0000 C   0  0  0  0  0  0  0  0  0  0  0  0
   -4.3458   -1.6000    0.0000 C   0  0  0  0  0  0  0  0  0  0  0  0
   -3.7833   -1.9542    0.0000 C   0  0  0  0  0  0  0  0  0  0  0  0
   -4.3458   -0.9167    0.0000 C   0  0  0  0  0  0  0  0  0  0  0  0
    2.0667    0.8833    0.0000 C   0  0  0  0  0  0  0  0  0  0  0  0
    2.5000    1.1333    0.0000 C   0  0  0  0  0  0  0  0  0  0  0  0
    1.7750    2.1333    0.0000 C   0  0  0  0  0  0  0  0  0  0  0  0
   -2.5958   -2.6542    0.0000 C   0  0  0  0  0  0  0  0  0  0  0  0
   -3.1583    0.3958    0.0000 C   0  0  0  0  0  0  0  0  0  0  0  0
    2.5167    2.6625    0.0000 C   0  0  0  0  0  0  0  0  0  0  0  0
    4.3417    1.2125    0.0000 C   0  0  0  0  0  0  0  0  0  0  0  0
   -0.6291   -2.0810    0.0000 H   0  0  0  0  0  0  0  0  0  0  0  0
  2  1  1  0
  3  1  1  0
  4  3  1  0
  5  1  1  0
  6  2  1  0
  7  5  1  0
  8  9  1  0
  4  9  1  6
 10  8  1  0
  5 11  1  1
 12  3  2  0
 13  8  2  0
 14 10  1  0
 15 10  2  0
 16 11  2  0
 17 11  1  0
 18  7  1  0
 19  7  1  0
 20 27  1  0
 21 14  1  0
 22 15  1  0
 23 17  1  0
 24 26  2  0
 25 14  2  0
 26 15  1  0
 27 23  1  0
 28 20  1  0
 29 20  1  0
 30 21  1  0
 31 22  1  0
 32 29  1  0
 33 28  1  0
  6  7  1  0
  2  4  1  0
 25 24  1  0
  2 34  1  1
M  END

> <chembl_id>
CHEMBL2105448

> <chembl_pref_name>
TAMETICILLIN

$$$$

     RDKit          2D

 38 41  0  0  0  0  0  0  0  0999 V2000
    3.7849   -2.4034    0.0000 N   0  0  0  0  0  0  0  0  0  0  0  0
    3.8149   -1.5790    0.0000 C   0  0  0  0  0  0  0  0  0  0  0  0
    2.9605   -2.3734    0.0000 C   0  0  0  0  0  0  0  0  0  0  0  0
    2.9905   -1.5489    0.0000 C   0  0  0  0  0  0  0  0  0  0  0  0
    4.5598   -2.6867    0.0000 C   0  0  0  0  0  0  0  0  0  0  0  0
    4.6083   -1.3527    0.0000 S   0  0  0  0  0  0  0  0  0  0  0  0
    5.0686   -2.0374    0.0000 C   0  0  0  0  0  0  0  0  0  0  0  0
    2.4287   -0.9447    0.0000 N   0  0  0  0  0  0  0  0  0  0  0  0
    1.6246   -1.1291    0.0000 C   0  0  0  0  0  0  0  0  0  0  0  0
    1.3708    0.2404    0.0000 N   0  0  0  0  0  0  0  0  0  0  0  0
    0.8619    0.8898    0.0000 C   0  0  0  0  0  0  0  0  0  0  0  0
    1.0629   -0.5249    0.0000 C   0  0  0  0  0  0  0  0  0  0  0  0
    4.7860   -3.4801    0.0000 C   0  0  0  0  0  0  0  0  0  0  0  0
    1.1698    1.6552    0.0000 C   0  0  0  0  0  0  0  0  0  0  0  0
    2.3563   -2.9352    0.0000 O   0  0  0  0  0  0  0  0  0  0  0  0
    0.3835    2.1470    0.0000 O   0  0  0  0  0  0  0  0  0  0  0  0
    1.3822   -1.9177    0.0000 O   0  0  0  0  0  0  0  0  0  0  0  0
    0.0451    0.7738    0.0000 O   0  0  0  0  0  0  0  0  0  0  0  0
    5.5862   -3.6809    0.0000 O   0  0  0  0  0  0  0  0  0  0  0  0
    0.2461   -0.6410    0.0000 C   0  0  0  0  0  0  0  0  0  0  0  0
    0.3717    3.2398    0.0000 C   0  0  0  0  0  0  0  0  0  0  0  0
    4.2120   -4.0727    0.0000 O   0  0  0  0  0  0  0  0  0  0  0  0
    0.3117    4.8887    0.0000 C   0  0  0  0  0  0  0  0  0  0  0  0
    5.6612   -2.6114    0.0000 C   0  0  0  0  0  0  0  0  0  0  0  0
    5.7014   -1.5080    0.0000 C   0  0  0  0  0  0  0  0  0  0  0  0
    0.2817    5.7132    0.0000 Cl  0  0  0  0  0  0  0  0  0  0  0  0
    1.0707    3.6781    0.0000 C   0  0  0  0  0  0  0  0  0  0  0  0
   -0.3573    3.6261    0.0000 C   0  0  0  0  0  0  0  0  0  0  0  0
    1.0407    4.5025    0.0000 C   0  0  0  0  0  0  0  0  0  0  0  0
   -0.3873    4.4505    0.0000 C   0  0  0  0  0  0  0  0  0  0  0  0
    1.9656    1.4081    0.0000 C   0  0  0  0  0  0  0  0  0  0  0  0
    1.8634    2.2671    0.0000 C   0  0  0  0  0  0  0  0  0  0  0  0
   -0.2628    0.0084    0.0000 C   0  0  0  0  0  0  0  0  0  0  0  0
   -0.0619   -1.4064    0.0000 C   0  0  0  0  0  0  0  0  0  0  0  0
   -0.8787   -1.5224    0.0000 C   0  0  0  0  0  0  0  0  0  0  0  0
   -1.0796   -0.1076    0.0000 C   0  0  0  0  0  0  0  0  0  0  0  0
   -1.3875   -0.8730    0.0000 C   0  0  0  0  0  0  0  0  0  0  0  0
    3.7156   -0.7600    0.0000 H   0  0  0  0  0  0  0  0  0  0  0  0
  2  1  1  0
  3  1  1  0
  4  3  1  0
  5  1  1  0
  6  2  1  0
  7  5  1  0
  4  8  1  1
  9  8  1  0
 10 12  1  0
 11 10  1  0
 12  9  1  0
  5 13  1  6
 14 11  1  0
 15  3  2  0
 16 14  1  0
 17  9  2  0
 18 11  2  0
 19 13  2  0
 12 20  1  1
 21 16  1  0
 22 13  1  0
 23 30  2  0
 24  7  1  0
 25  7  1  0
 26 23  1  0
 27 21  1  0
 28 21  2  0
 29 27  2  0
 30 28  1  0
 31 14  1  0
 32 14  1  0
 33 20  2  0
 34 20  1  0
 35 34  2  0
 36 33  1  0
 37 35  1  0
  6  7  1  0
  2  4  1  0
 36 37  2  0
 29 23  1  0
  2 38  1  6
M  END


> <chembl_id>
CHEMBL4594226

> <chembl_pref_name>
FIBRACILLIN

$$$$

     RDKit          2D

 41 45  0  0  1  0  0  0  0  0999 V2000
  -12.1665    6.6743    0.0000 N   0  0  0  0  0  0  0  0  0  0  0  0
  -12.1665    5.8493    0.0000 C   0  0  0  0  0  0  0  0  0  0  0  0
  -14.1011    1.7085    0.0000 N   0  0  0  0  0  0  0  0  0  0  0  0
  -12.9915    6.6743    0.0000 C   0  0  0  0  0  0  0  0  0  0  0  0
  -12.9915    5.8493    0.0000 C   0  0  0  0  0  0  0  0  0  0  0  0
  -14.6202    1.0674    0.0000 C   0  0  0  0  0  0  0  0  0  0  0  0
  -11.3819    6.9292    0.0000 C   0  0  0  0  0  0  0  0  0  0  0  0
  -14.3146    2.5054    0.0000 C   0  0  0  0  0  0  0  0  0  0  0  0
  -11.3819    5.5944    0.0000 S   0  0  0  0  0  0  0  0  0  0  0  0
  -10.8970    6.2618    0.0000 C   0  0  0  0  0  0  0  0  0  0  0  0
  -13.5749    5.2659    0.0000 N   0  0  0  0  0  0  0  0  0  0  0  0
  -14.1709    0.3755    0.0000 N   0  0  0  0  0  0  0  0  0  0  0  0
  -13.7312    3.0888    0.0000 N   0  0  0  0  0  0  0  0  0  0  0  0
  -13.3614    4.4690    0.0000 C   0  0  0  0  0  0  0  0  0  0  0  0
  -13.9447    3.8857    0.0000 C   0  0  0  0  0  0  0  0  0  0  0  0
  -14.4666   -0.3947    0.0000 N   0  0  0  0  0  0  0  0  0  0  0  0
  -11.1270    7.7139    0.0000 C   0  0  0  0  0  0  0  0  0  0  0  0
  -13.3309    1.4129    0.0000 C   0  0  0  0  0  0  0  0  0  0  0  0
  -13.3740    0.5890    0.0000 C   0  0  0  0  0  0  0  0  0  0  0  0
  -13.9474   -1.0359    0.0000 C   0  0  0  0  0  0  0  0  0  0  0  0
  -13.5749    7.2577    0.0000 O   0  0  0  0  0  0  0  0  0  0  0  0
  -15.4441    1.1106    0.0000 O   0  0  0  0  0  0  0  0  0  0  0  0
  -15.1115    2.7190    0.0000 O   0  0  0  0  0  0  0  0  0  0  0  0
  -14.7416    4.0992    0.0000 C   0  0  0  0  0  0  0  0  0  0  0  0
  -12.5645    4.2555    0.0000 O   0  0  0  0  0  0  0  0  0  0  0  0
  -10.3200    7.8854    0.0000 O   0  0  0  0  0  0  0  0  0  0  0  0
  -14.9552    4.8961    0.0000 C   0  0  0  0  0  0  0  0  0  0  0  0
  -15.3250    3.5158    0.0000 C   0  0  0  0  0  0  0  0  0  0  0  0
  -11.6790    8.3270    0.0000 O   0  0  0  0  0  0  0  0  0  0  0  0
  -10.2839    6.8138    0.0000 C   0  0  0  0  0  0  0  0  0  0  0  0
  -10.2839    5.7098    0.0000 C   0  0  0  0  0  0  0  0  0  0  0  0
  -16.3354    4.5263    0.0000 C   0  0  0  0  0  0  0  0  0  0  0  0
  -15.7521    5.1096    0.0000 C   0  0  0  0  0  0  0  0  0  0  0  0
  -16.1219    3.7294    0.0000 C   0  0  0  0  0  0  0  0  0  0  0  0
  -17.1323    4.7398    0.0000 O   0  0  0  0  0  0  0  0  0  0  0  0
  -12.2956    5.0345    0.0000 H   0  0  0  0  0  0  0  0  0  0  0  0
  -14.2430   -1.8061    0.0000 C   0  0  0  0  0  0  0  0  0  0  0  0
  -15.0399   -2.0196    0.0000 C   0  0  0  0  0  0  0  0  0  0  0  0
  -15.0831   -2.8434    0.0000 C   0  0  0  0  0  0  0  0  0  0  0  0
  -14.3129   -3.1391    0.0000 C   0  0  0  0  0  0  0  0  0  0  0  0
  -13.7937   -2.4980    0.0000 O   0  0  0  0  0  0  0  0  0  0  0  0
  2  1  1  0
  3  8  1  0
  4  1  1  0
  5  4  1  0
  6  3  1  0
  7  1  1  0
  8 13  1  0
  9  2  1  0
 10  7  1  0
  5 11  1  6
 12  6  1  0
 15 13  1  6
 14 11  1  0
 15 14  1  0
 16 12  1  0
  7 17  1  1
 18  3  1  0
 19 18  1  0
 20 16  2  0
 21  4  2  0
 22  6  2  0
 23  8  2  0
 15 24  1  0
 25 14  2  0
 26 17  2  0
 27 24  2  0
 28 24  1  0
 29 17  1  0
 30 10  1  0
 31 10  1  0
 32 34  1  0
 33 27  1  0
 34 28  2  0
 35 32  1  0
  9 10  1  0
  2  5  1  0
 33 32  2  0
 12 19  1  0
  2 36  1  1
 20 37  1  0
 37 38  2  0
 37 41  1  0
 38 39  1  0
 39 40  2  0
 40 41  1  0
M  END

> <chembl_id>
CHEMBL3989440

> <chembl_pref_name>
FUZLOCILLIN

$$$$

     RDKit          2D

 25 27  0  0  1  0  0  0  0  0999 V2000
    5.8667   -4.6292    0.0000 N   0  0  0  0  0  0  0  0  0  0  0  0
    5.8667   -5.3417    0.0000 C   0  0  0  0  0  0  0  0  0  0  0  0
    5.1542   -4.6292    0.0000 C   0  0  0  0  0  0  0  0  0  0  0  0
    5.1542   -5.3417    0.0000 C   0  0  0  0  0  0  0  0  0  0  0  0
    6.5500   -4.4167    0.0000 C   0  0  0  0  0  0  0  0  0  0  0  0
    6.5500   -5.5667    0.0000 S   0  0  0  0  0  0  0  0  0  0  0  0
    6.9667   -4.9917    0.0000 C   0  0  0  0  0  0  0  0  0  0  0  0
    6.7875   -3.7375    0.0000 C   0  0  0  0  0  0  0  0  0  0  0  0
    4.4625   -5.1625    0.0000 N   0  0  0  0  0  0  0  0  0  0  0  0
    3.9667   -5.6542    0.0000 C   0  0  0  0  0  0  0  0  0  0  0  0
    4.8167   -4.0667    0.0000 O   0  0  0  0  0  0  0  0  0  0  0  0
    7.4875   -3.6000    0.0000 O   0  0  0  0  0  0  0  0  0  0  0  0
    6.3125   -3.1917    0.0000 O   0  0  0  0  0  0  0  0  0  0  0  0
    3.2875   -5.4875    0.0000 O   0  0  0  0  0  0  0  0  0  0  0  0
    3.6250   -6.8417    0.0000 S   0  0  0  0  0  0  0  0  0  0  0  0
    4.1500   -6.3500    0.0000 C   0  0  0  0  0  0  0  0  0  0  0  0
    7.5542   -5.4250    0.0000 C   0  0  0  0  0  0  0  0  0  0  0  0
    7.5792   -4.6292    0.0000 C   0  0  0  0  0  0  0  0  0  0  0  0
    2.9125   -6.8292    0.0000 C   0  0  0  0  0  0  0  0  0  0  0  0
    2.5625   -7.4292    0.0000 C   0  0  0  0  0  0  0  0  0  0  0  0
    2.5667   -6.2292    0.0000 C   0  0  0  0  0  0  0  0  0  0  0  0
    1.8792   -7.4292    0.0000 C   0  0  0  0  0  0  0  0  0  0  0  0
    1.8792   -6.2292    0.0000 C   0  0  0  0  0  0  0  0  0  0  0  0
    1.5292   -6.8292    0.0000 C   0  0  0  0  0  0  0  0  0  0  0  0
    5.7083   -6.3291    0.0000 H   0  0  0  0  0  0  0  0  0  0  0  0
  2  1  1  0
  3  1  1  0
  4  3  1  0
  5  1  1  0
  6  2  1  0
  7  5  1  0
  5  8  1  1
  4  9  1  6
 10  9  1  0
 11  3  2  0
 12  8  1  0
 13  8  2  0
 14 10  2  0
 15 16  1  0
 16 10  1  0
 17  7  1  0
 18  7  1  0
 19 15  1  0
 20 19  2  0
 21 19  1  0
 22 20  1  0
 23 21  2  0
 24 22  2  0
  6  7  1  0
  2  4  1  0
 23 24  1  0
  2 25  1  1
M  END

> <chembl_id>
CHEMBL2111130

> <chembl_pref_name>
THIPHENCILLIN

$$$$

     RDKit          2D

 26 27  0  0  0  0  0  0  0  0999 V2000
    8.5792   -4.3750    0.0000 K   0  0  0  0  0 15  0  0  0  0  0  0
    5.8667   -4.6292    0.0000 N   0  0  0  0  0  0  0  0  0  0  0  0
    5.8667   -5.3417    0.0000 C   0  0  0  0  0  0  0  0  0  0  0  0
    5.1542   -4.6292    0.0000 C   0  0  0  0  0  0  0  0  0  0  0  0
    5.1542   -5.3417    0.0000 C   0  0  0  0  0  0  0  0  0  0  0  0
    6.5500   -4.4167    0.0000 C   0  0  0  0  0  0  0  0  0  0  0  0
    6.5500   -5.5667    0.0000 S   0  0  0  0  0  0  0  0  0  0  0  0
    6.9667   -4.9917    0.0000 C   0  0  0  0  0  0  0  0  0  0  0  0
    6.7875   -3.7375    0.0000 C   0  0  0  0  0  0  0  0  0  0  0  0
    4.4625   -5.1625    0.0000 N   0  0  0  0  0  0  0  0  0  0  0  0
    3.9667   -5.6542    0.0000 C   0  0  0  0  0  0  0  0  0  0  0  0
    4.8167   -4.0667    0.0000 O   0  0  0  0  0  0  0  0  0  0  0  0
    7.4875   -3.6000    0.0000 O   0  0  0  0  0  0  0  0  0  0  0  0
    6.3125   -3.1917    0.0000 O   0  0  0  0  0  0  0  0  0  0  0  0
    3.2875   -5.4875    0.0000 O   0  0  0  0  0  0  0  0  0  0  0  0
    3.6250   -6.8417    0.0000 S   0  0  0  0  0  0  0  0  0  0  0  0
    4.1500   -6.3500    0.0000 C   0  0  0  0  0  0  0  0  0  0  0  0
    7.5542   -5.4250    0.0000 C   0  0  0  0  0  0  0  0  0  0  0  0
    7.5792   -4.6292    0.0000 C   0  0  0  0  0  0  0  0  0  0  0  0
    2.9125   -6.8292    0.0000 C   0  0  0  0  0  0  0  0  0  0  0  0
    2.5625   -7.4292    0.0000 C   0  0  0  0  0  0  0  0  0  0  0  0
    2.5667   -6.2292    0.0000 C   0  0  0  0  0  0  0  0  0  0  0  0
    1.8792   -7.4292    0.0000 C   0  0  0  0  0  0  0  0  0  0  0  0
    1.8792   -6.2292    0.0000 C   0  0  0  0  0  0  0  0  0  0  0  0
    1.5292   -6.8292    0.0000 C   0  0  0  0  0  0  0  0  0  0  0  0
    5.7083   -6.3291    0.0000 H   0  0  0  0  0  0  0  0  0  0  0  0
  3  2  1  0
  4  2  1  0
  5  4  1  0
  6  2  1  0
  7  3  1  0
  8  6  1  0
  6  9  1  1
  5 10  1  6
 11 10  1  0
 12  4  2  0
 13  9  1  0
 14  9  2  0
 15 11  2  0
 16 17  1  0
 17 11  1  0
 18  8  1  0
 19  8  1  0
 20 16  1  0
 21 20  2  0
 22 20  1  0
 23 21  1  0
 24 22  2  0
 25 23  2  0
  7  8  1  0
  3  5  1  0
 24 25  1  0
  3 26  1  1
M  CHG  2   1   1  13  -1
M  END

> <chembl_id>
CHEMBL2107482

> <chembl_pref_name>
THIPHENCILLIN POTASSIUM

$$$$

     RDKit          2D

 34 36  0  0  0  0  0  0  0  0999 V2000
   13.2727   -9.6883    0.0000 Na  0  0  0  0  0 15  0  0  0  0  0  0
   10.1260  -10.9047    0.0000 N   0  0  0  0  0  0  0  0  0  0  0  0
   10.1260  -11.7297    0.0000 C   0  0  0  0  0  0  0  0  0  0  0  0
    9.3010  -10.9047    0.0000 C   0  0  0  0  0  0  0  0  0  0  0  0
    9.3010  -11.7297    0.0000 C   0  0  0  0  0  0  0  0  0  0  0  0
   10.9107  -10.6498    0.0000 C   0  0  0  0  0  0  0  0  0  0  0  0
   10.9107  -11.9847    0.0000 S   0  0  0  0  0  0  0  0  0  0  0  0
   11.3956  -11.3172    0.0000 C   0  0  0  0  0  0  0  0  0  0  0  0
    8.0032  -11.9006    0.0000 C   0  0  0  0  0  0  0  0  0  0  0  0
    8.7177  -12.3131    0.0000 N   0  0  0  0  0  0  0  0  0  0  0  0
    6.5743  -11.9006    0.0000 C   0  0  0  0  0  0  0  0  0  0  0  0
    7.2887  -12.3131    0.0000 C   0  0  0  0  0  0  0  0  0  0  0  0
   11.1656   -9.8652    0.0000 C   0  0  0  0  0  0  0  0  0  0  0  0
    7.2887  -13.1381    0.0000 C   0  0  0  0  0  0  0  0  0  0  0  0
    5.8598  -12.3131    0.0000 O   0  0  0  0  0  0  0  0  0  0  0  0
    8.7177  -10.3213    0.0000 O   0  0  0  0  0  0  0  0  0  0  0  0
    6.8762  -14.4076    0.0000 S   0  0  0  0  0  0  0  0  0  0  0  0
    8.0032  -11.0756    0.0000 O   0  0  0  0  0  0  0  0  0  0  0  0
    6.5743  -11.0756    0.0000 O   0  0  0  0  0  0  0  0  0  0  0  0
    6.6213  -13.6230    0.0000 C   0  0  0  0  0  0  0  0  0  0  0  0
   11.9726   -9.6936    0.0000 O   0  0  0  0  0  0  0  0  0  0  0  0
    7.9562  -13.6230    0.0000 C   0  0  0  0  0  0  0  0  0  0  0  0
    7.7012  -14.4076    0.0000 C   0  0  0  0  0  0  0  0  0  0  0  0
   10.6136   -9.2521    0.0000 O   0  0  0  0  0  0  0  0  0  0  0  0
    5.1453  -11.9006    0.0000 C   0  0  0  0  0  0  0  0  0  0  0  0
   12.0087  -10.7652    0.0000 C   0  0  0  0  0  0  0  0  0  0  0  0
   12.0087  -11.8692    0.0000 C   0  0  0  0  0  0  0  0  0  0  0  0
    3.7164  -11.0756    0.0000 C   0  0  0  0  0  0  0  0  0  0  0  0
    4.4309  -12.3131    0.0000 C   0  0  0  0  0  0  0  0  0  0  0  0
    5.1453  -11.0756    0.0000 C   0  0  0  0  0  0  0  0  0  0  0  0
    3.7164  -11.9006    0.0000 C   0  0  0  0  0  0  0  0  0  0  0  0
    4.4309  -10.6631    0.0000 C   0  0  0  0  0  0  0  0  0  0  0  0
    3.0019  -10.6631    0.0000 C   0  0  0  0  0  0  0  0  0  0  0  0
    9.9970  -12.5446    0.0000 H   0  0  0  0  0  0  0  0  0  0  0  0
  3  2  1  0
  4  2  1  0
  5  4  1  0
  6  2  1  0
  7  3  1  0
  8  6  1  0
  9 10  1  0
  5 10  1  6
 11 12  1  0
 12  9  1  0
  6 13  1  1
 12 14  1  1
 15 11  1  0
 16  4  2  0
 17 20  1  0
 18  9  2  0
 19 11  2  0
 20 14  2  0
 21 13  1  0
 22 14  1  0
 23 22  2  0
 24 13  2  0
 25 15  1  0
 26  8  1  0
 27  8  1  0
 28 32  2  0
 29 25  1  0
 30 25  2  0
 31 29  2  0
 32 30  1  0
 33 28  1  0
  3 34  1  1
  7  8  1  0
  3  5  1  0
 23 17  1  0
 31 28  1  0
M  CHG  2   1   1  21  -1
M  END


> <chembl_id>
CHEMBL4594237

> <chembl_pref_name>
TICARCILLIN CRESYL SODIUM

$$$$

     RDKit          2D

 32 35  0  0  1  0  0  0  0  0999 V2000
   -0.9083   -0.4750    0.0000 N   0  0  0  0  0  0  0  0  0  0  0  0
    0.5375    0.2708    0.0000 N   0  0  0  0  0  0  0  0  0  0  0  0
   -0.1875   -0.4542    0.0000 C   0  0  0  0  0  0  0  0  0  0  0  0
    0.5375   -0.4542    0.0000 C   0  0  0  0  0  0  0  0  0  0  0  0
   -0.1875    0.2708    0.0000 C   0  0  0  0  0  0  0  0  0  0  0  0
   -1.3583    0.0958    0.0000 C   0  0  0  0  0  0  0  0  0  0  0  0
   -1.3125   -1.0542    0.0000 C   0  0  0  0  0  0  0  0  0  0  0  0
    1.2375    0.4958    0.0000 C   0  0  0  0  0  0  0  0  0  0  0  0
    1.2375   -0.6792    0.0000 S   0  0  0  0  0  0  0  0  0  0  0  0
   -2.0000   -0.8625    0.0000 N   0  0  0  0  0  0  0  0  0  0  0  0
    1.6667   -0.1042    0.0000 C   0  0  0  0  0  0  0  0  0  0  0  0
   -2.0208   -0.1417    0.0000 C   0  0  0  0  0  0  0  0  0  0  0  0
    1.8417    0.9208    0.0000 C   0  0  0  0  0  0  0  0  0  0  0  0
   -0.4708    0.8708    0.0000 O   0  0  0  0  0  0  0  0  0  0  0  0
   -1.3625    0.6750    0.0000 O   0  0  0  0  0  0  0  0  0  0  0  0
   -2.6000    0.2458    0.0000 C   0  0  0  0  0  0  0  0  0  0  0  0
    2.5000    0.6000    0.0000 O   0  0  0  0  0  0  0  0  0  0  0  0
    1.7792    1.6375    0.0000 O   0  0  0  0  0  0  0  0  0  0  0  0
   -3.2208   -0.0542    0.0000 C   0  0  0  0  0  0  0  0  0  0  0  0
   -2.6000    0.9458    0.0000 C   0  0  0  0  0  0  0  0  0  0  0  0
   -1.4708   -1.7125    0.0000 C   0  0  0  0  0  0  0  0  0  0  0  0
   -0.8208   -1.5375    0.0000 C   0  0  0  0  0  0  0  0  0  0  0  0
    3.0917    1.0083    0.0000 C   0  0  0  0  0  0  0  0  0  0  0  0
    2.2542   -0.5375    0.0000 C   0  0  0  0  0  0  0  0  0  0  0  0
    2.2917    0.2708    0.0000 C   0  0  0  0  0  0  0  0  0  0  0  0
   -3.7208    0.9458    0.0000 C   0  0  0  0  0  0  0  0  0  0  0  0
   -3.1583    1.2625    0.0000 C   0  0  0  0  0  0  0  0  0  0  0  0
   -3.7208    0.2875    0.0000 C   0  0  0  0  0  0  0  0  0  0  0  0
   -4.2583    1.2833    0.0000 O   0  0  0  0  0  0  0  0  0  0  0  0
    3.7417    0.7000    0.0000 O   0  0  0  0  0  0  0  0  0  0  0  0
    4.3417    1.1125    0.0000 C   0  0  0  0  0  0  0  0  0  0  0  0
    0.3826   -1.4421    0.0000 H   0  0  0  0  0  0  0  0  0  0  0  0
  2  5  1  0
  3  1  1  6
  4  3  1  0
  5  3  1  0
  6  1  1  0
  7  1  1  0
  8  2  1  0
  9  4  1  0
 10  7  1  0
 11  9  1  0
 12  6  1  0
  8 13  1  1
 14  5  2  0
 15  6  2  0
 16 12  1  0
 17 13  1  0
 18 13  2  0
 19 16  2  0
 20 16  1  0
 21  7  1  0
 22  7  1  0
 23 17  1  0
 24 11  1  0
 25 11  1  0
 26 27  1  0
 27 20  2  0
 28 19  1  0
 29 26  1  0
 30 23  1  0
 31 30  1  0
 12 10  1  0
  4  2  1  0
  8 11  1  0
 28 26  2  0
  4 32  1  1
M  END

> <chembl_id>
CHEMBL2106475

> <chembl_pref_name>
SARMOXICILLIN

$$$$

     RDKit          2D

 33 36  0  0  0  0  0  0  0  0999 V2000
  -13.1771    5.0138    0.0000 N   0  0  0  0  0  0  0  0  0  0  0  0
  -14.0021    5.0138    0.0000 C   0  0  0  0  0  0  0  0  0  0  0  0
  -14.0021    4.1888    0.0000 C   0  0  0  0  0  0  0  0  0  0  0  0
  -13.1771    4.1888    0.0000 C   0  0  0  0  0  0  0  0  0  0  0  0
  -12.3925    3.9339    0.0000 S   0  0  0  0  0  0  0  0  0  0  0  0
  -11.9076    4.6013    0.0000 C   0  0  0  0  0  0  0  0  0  0  0  0
  -12.3925    5.2688    0.0000 C   0  0  0  0  0  0  0  0  0  0  0  0
  -14.5855    5.5972    0.0000 O   0  0  0  0  0  0  0  0  0  0  0  0
  -13.1771    3.3638    0.0000 H   0  0  0  0  0  0  0  0  0  0  0  0
  -12.1375    6.0534    0.0000 C   0  0  0  0  0  0  0  0  0  0  0  0
  -12.6895    6.6665    0.0000 O   0  0  0  0  0  0  0  0  0  0  0  0
  -11.3305    6.2249    0.0000 O   0  0  0  0  0  0  0  0  0  0  0  0
  -14.8271    4.1888    0.0000 N   0  0  0  0  0  0  0  0  0  0  0  0
  -11.1931    5.0138    0.0000 C   0  0  0  0  0  0  0  0  0  0  0  0
  -11.1931    4.1888    0.0000 C   0  0  0  0  0  0  0  0  0  0  0  0
  -15.5416    4.6013    0.0000 C   0  0  0  0  0  0  0  0  0  0  0  0
  -16.2561    4.1888    0.0000 C   0  0  0  0  0  0  0  0  0  0  0  0
  -15.5416    5.4263    0.0000 O   0  0  0  0  0  0  0  0  0  0  0  0
  -16.9705    4.6013    0.0000 C   0  0  0  0  0  0  0  0  0  0  0  0
  -16.2561    3.3638    0.0000 C   0  0  0  0  0  0  0  0  0  0  0  0
  -17.6850    4.1888    0.0000 O   0  0  0  0  0  0  0  0  0  0  0  0
  -16.9705    5.4263    0.0000 O   0  0  0  0  0  0  0  0  0  0  0  0
  -18.3995    4.6013    0.0000 C   0  0  0  0  0  0  0  0  0  0  0  0
  -18.3995    5.4264    0.0000 C   0  0  0  0  0  0  0  0  0  0  0  0
  -19.1139    5.8389    0.0000 C   0  0  0  0  0  0  0  0  0  0  0  0
  -19.8284    5.4263    0.0000 C   0  0  0  0  0  0  0  0  0  0  0  0
  -19.8284    4.6013    0.0000 C   0  0  0  0  0  0  0  0  0  0  0  0
  -19.1140    4.1888    0.0000 C   0  0  0  0  0  0  0  0  0  0  0  0
  -20.5429    5.8388    0.0000 C   0  0  0  0  0  0  0  0  0  0  0  0
  -16.9235    2.8789    0.0000 C   0  0  0  0  0  0  0  0  0  0  0  0
  -16.6686    2.0943    0.0000 S   0  0  0  0  0  0  0  0  0  0  0  0
  -15.8436    2.0943    0.0000 C   0  0  0  0  0  0  0  0  0  0  0  0
  -15.5886    2.8789    0.0000 C   0  0  0  0  0  0  0  0  0  0  0  0
  1  2  1  0
  2  3  1  0
  3  4  1  0
  4  5  1  0
  1  4  1  0
  1  7  1  0
  5  6  1  0
  6  7  1  0
  2  8  2  0
  4  9  1  1
  7 10  1  1
 10 11  1  0
 10 12  2  0
  3 13  1  6
  6 14  1  0
  6 15  1  0
 13 16  1  0
 16 17  1  0
 16 18  2  0
 17 19  1  0
 17 20  1  1
 19 21  1  0
 19 22  2  0
 21 23  1  0
 23 24  1  0
 23 28  2  0
 24 25  2  0
 25 26  1  0
 26 27  2  0
 27 28  1  0
 26 29  1  0
 20 30  2  0
 20 33  1  0
 30 31  1  0
 31 32  1  0
 32 33  2  0
M  END

> <chembl_id>
CHEMBL1237049

> <chembl_pref_name>
TICARCILLIN CRESYL

$$$$

     RDKit          2D

 42 45  0  0  1  0  0  0  0  0999 V2000
    1.5292    0.5333    0.0000 C   0  0  0  0  0  0  0  0  0  0  0  0
    2.2792    1.2833    0.0000 N   0  0  0  0  0  0  0  0  0  0  0  0
    2.2792    0.5333    0.0000 C   0  0  0  0  0  0  0  0  0  0  0  0
    1.5292    1.2833    0.0000 C   0  0  0  0  0  0  0  0  0  0  0  0
   -2.2458    0.4708    0.0000 N   0  0  0  0  0  0  0  0  0  0  0  0
   -2.9833    0.5833    0.0000 C   0  0  0  0  0  0  0  0  0  0  0  0
    2.9917    1.5083    0.0000 C   0  0  0  0  0  0  0  0  0  0  0  0
   -1.9375    1.0458    0.0000 C   0  0  0  0  0  0  0  0  0  0  0  0
    0.8125    0.8250    0.0000 N   0  0  0  0  0  0  0  0  0  0  0  0
    2.9917    0.3000    0.0000 S   0  0  0  0  0  0  0  0  0  0  0  0
    3.4375    0.8958    0.0000 C   0  0  0  0  0  0  0  0  0  0  0  0
   -3.4500   -0.0167    0.0000 C   0  0  0  0  0  0  0  0  0  0  0  0
    0.0500    0.6333    0.0000 C   0  0  0  0  0  0  0  0  0  0  0  0
   -1.1375    1.1083    0.0000 N   0  0  0  0  0  0  0  0  0  0  0  0
   -0.6750    0.2833    0.0000 C   0  0  0  0  0  0  0  0  0  0  0  0
   -3.1708   -0.7042    0.0000 N   0  0  0  0  0  0  0  0  0  0  0  0
    1.2917   -0.1917    0.0000 N   0  0  0  0  0  0  0  0  0  0  0  0
    3.6167    1.9583    0.0000 C   0  0  0  0  0  0  0  0  0  0  0  0
   -1.9708   -0.2167    0.0000 C   0  0  0  0  0  0  0  0  0  0  0  0
   -0.6750   -0.5042    0.0000 C   0  0  0  0  0  0  0  0  0  0  0  0
   -1.2958   -0.9625    0.0000 C   0  0  0  0  0  0  0  0  0  0  0  0
    1.1875    1.9208    0.0000 O   0  0  0  0  0  0  0  0  0  0  0  0
   -1.2958   -1.6417    0.0000 C   0  0  0  0  0  0  0  0  0  0  0  0
   -3.2333    1.1208    0.0000 O   0  0  0  0  0  0  0  0  0  0  0  0
   -2.3458    1.4708    0.0000 O   0  0  0  0  0  0  0  0  0  0  0  0
   -2.4125   -0.8125    0.0000 C   0  0  0  0  0  0  0  0  0  0  0  0
   -4.0083   -0.0167    0.0000 O   0  0  0  0  0  0  0  0  0  0  0  0
    1.6792   -0.7000    0.0000 C   0  0  0  0  0  0  0  0  0  0  0  0
   -0.1083    1.2958    0.0000 O   0  0  0  0  0  0  0  0  0  0  0  0
   -0.6750   -1.9875    0.0000 C   0  0  0  0  0  0  0  0  0  0  0  0
   -0.0208   -0.9167    0.0000 C   0  0  0  0  0  0  0  0  0  0  0  0
    3.5542    2.6125    0.0000 O   0  0  0  0  0  0  0  0  0  0  0  0
    2.3042   -1.0125    0.0000 O   0  0  0  0  0  0  0  0  0  0  0  0
   -0.0208   -1.6417    0.0000 C   0  0  0  0  0  0  0  0  0  0  0  0
    4.2917    1.6333    0.0000 O   0  0  0  0  0  0  0  0  0  0  0  0
    4.0792    1.2833    0.0000 C   0  0  0  0  0  0  0  0  0  0  0  0
    4.0417    0.4583    0.0000 C   0  0  0  0  0  0  0  0  0  0  0  0
   -1.7958   -1.9875    0.0000 O   0  0  0  0  0  0  0  0  0  0  0  0
   -0.6750   -2.5542    0.0000 O   0  0  0  0  0  0  0  0  0  0  0  0
   -3.6333   -1.2625    0.0000 C   0  0  0  0  0  0  0  0  0  0  0  0
   -4.3458   -1.1542    0.0000 C   0  0  0  0  0  0  0  0  0  0  0  0
    2.1216   -0.4542    0.0000 H   0  0  0  0  0  0  0  0  0  0  0  0
  2  4  1  0
  3  1  1  0
  4  1  1  0
  5  8  1  0
  6  5  1  0
  7  2  1  0
  8 14  1  0
  1  9  1  6
 10  3  1  0
 11 10  1  0
 12  6  1  0
 13  9  1  0
 15 14  1  1
 15 13  1  0
 16 26  1  0
  1 17  1  0
  7 18  1  1
 19  5  1  0
 20 15  1  0
 21 20  2  0
 22  4  2  0
 23 21  1  0
 24  6  2  0
 25  8  2  0
 26 19  1  0
 27 12  2  0
 28 17  1  0
 29 13  2  0
 30 34  1  0
 31 20  1  0
 32 18  2  0
 33 28  2  0
 34 31  2  0
 35 18  1  0
 36 11  1  0
 37 11  1  0
 38 23  1  0
 39 30  1  0
 40 16  1  0
 41 40  1  0
  3  2  1  0
  7 11  1  0
 23 30  2  0
 12 16  1  0
  3 42  1  1
M  END

> <chembl_id>
CHEMBL2105850

> <chembl_pref_name>
FOMIDACILLIN

$$$$

     RDKit          2D

 49 52  0  0  0  0  0  0  0  0999 V2000
   13.4045   -7.1524    0.0000 N   0  0  0  0  0  0  0  0  0  0  0  0
   13.4336   -7.9669    0.0000 C   0  0  0  0  0  0  0  0  0  0  0  0
   12.5610   -7.1379    0.0000 C   0  0  0  0  0  0  0  0  0  0  0  0
   12.5901   -7.9814    0.0000 C   0  0  0  0  0  0  0  0  0  0  0  0
   14.1462   -6.8422    0.0000 C   0  0  0  0  0  0  0  0  0  0  0  0
   14.2431   -8.1705    0.0000 S   0  0  0  0  0  0  0  0  0  0  0  0
   14.6794   -7.4724    0.0000 C   0  0  0  0  0  0  0  0  0  0  0  0
   11.9938   -8.5486    0.0000 N   0  0  0  0  0  0  0  0  0  0  0  0
   14.3643   -6.0472    0.0000 C   0  0  0  0  0  0  0  0  0  0  0  0
   11.1939   -8.3837    0.0000 C   0  0  0  0  0  0  0  0  0  0  0  0
   11.9356   -6.6143    0.0000 O   0  0  0  0  0  0  0  0  0  0  0  0
   15.1593   -5.8241    0.0000 O   0  0  0  0  0  0  0  0  0  0  0  0
   13.7681   -5.4751    0.0000 O   0  0  0  0  0  0  0  0  0  0  0  0
   10.9321   -7.5887    0.0000 O   0  0  0  0  0  0  0  0  0  0  0  0
   10.6509   -8.9994    0.0000 C   0  0  0  0  0  0  0  0  0  0  0  0
   15.4114   -7.0943    0.0000 C   0  0  0  0  0  0  0  0  0  0  0  0
   15.4114   -7.8456    0.0000 C   0  0  0  0  0  0  0  0  0  0  0  0
    9.8414   -8.8395    0.0000 C   0  0  0  0  0  0  0  0  0  0  0  0
    9.5747   -8.0492    0.0000 C   0  0  0  0  0  0  0  0  0  0  0  0
    9.2742   -9.4503    0.0000 C   0  0  0  0  0  0  0  0  0  0  0  0
    8.7652   -7.8893    0.0000 C   0  0  0  0  0  0  0  0  0  0  0  0
    8.4694   -9.3000    0.0000 C   0  0  0  0  0  0  0  0  0  0  0  0
    8.2271   -8.5146    0.0000 C   0  0  0  0  0  0  0  0  0  0  0  0
   13.4336   -8.7909    0.0000 H   0  0  0  0  0  0  0  0  0  0  0  0
    6.8838   -5.3277    0.0000 N   0  0  0  0  0  0  0  0  0  0  0  0
    6.9129   -6.1421    0.0000 C   0  0  0  0  0  0  0  0  0  0  0  0
    6.0403   -5.3132    0.0000 C   0  0  0  0  0  0  0  0  0  0  0  0
    6.0694   -6.1567    0.0000 C   0  0  0  0  0  0  0  0  0  0  0  0
    7.6255   -5.0174    0.0000 C   0  0  0  0  0  0  0  0  0  0  0  0
    7.7225   -6.3457    0.0000 S   0  0  0  0  0  0  0  0  0  0  0  0
    8.1588   -5.6477    0.0000 C   0  0  0  0  0  0  0  0  0  0  0  0
    5.4731   -6.7239    0.0000 N   0  0  0  0  0  0  0  0  0  0  0  0
    7.8437   -4.2224    0.0000 C   0  0  0  0  0  0  0  0  0  0  0  0
    4.6733   -6.5590    0.0000 C   0  0  0  0  0  0  0  0  0  0  0  0
    5.4150   -4.7896    0.0000 O   0  0  0  0  0  0  0  0  0  0  0  0
    8.6387   -3.9994    0.0000 O   0  0  0  0  0  0  0  0  0  0  0  0
    7.2474   -3.6504    0.0000 O   0  0  0  0  0  0  0  0  0  0  0  0
    4.4115   -5.7640    0.0000 O   0  0  0  0  0  0  0  0  0  0  0  0
    4.1303   -7.1747    0.0000 C   0  0  0  0  0  0  0  0  0  0  0  0
    8.8908   -5.2695    0.0000 C   0  0  0  0  0  0  0  0  0  0  0  0
    8.8908   -6.0209    0.0000 C   0  0  0  0  0  0  0  0  0  0  0  0
    3.3207   -7.0147    0.0000 C   0  0  0  0  0  0  0  0  0  0  0  0
    3.0541   -6.2245    0.0000 C   0  0  0  0  0  0  0  0  0  0  0  0
    2.7536   -7.6255    0.0000 C   0  0  0  0  0  0  0  0  0  0  0  0
    2.2445   -6.0645    0.0000 C   0  0  0  0  0  0  0  0  0  0  0  0
    1.9488   -7.4752    0.0000 C   0  0  0  0  0  0  0  0  0  0  0  0
    1.7064   -6.6899    0.0000 C   0  0  0  0  0  0  0  0  0  0  0  0
    6.9129   -6.9662    0.0000 H   0  0  0  0  0  0  0  0  0  0  0  0
   10.5293   -4.6538    0.0000 Ca  0  0  0  0  0 15  0  0  0  0  0  0
  2  1  1  0
  3  1  1  0
  4  3  1  0
  5  1  1  0
  6  2  1  0
  7  5  1  0
  4  8  1  6
  5  9  1  1
 10  8  1  0
 11  3  2  0
 12  9  1  0
 13  9  2  0
 14 10  2  0
 15 10  1  0
 16  7  1  0
 17  7  1  0
 18 15  1  0
 19 18  1  0
 20 18  2  0
 21 19  2  0
 22 20  1  0
 23 21  1  0
  2 24  1  1
  6  7  1  0
  2  4  1  0
 22 23  2  0
 26 25  1  0
 27 25  1  0
 28 27  1  0
 29 25  1  0
 30 26  1  0
 31 29  1  0
 28 32  1  6
 29 33  1  1
 34 32  1  0
 35 27  2  0
 36 33  1  0
 37 33  2  0
 38 34  2  0
 39 34  1  0
 40 31  1  0
 41 31  1  0
 42 39  1  0
 43 42  1  0
 44 42  2  0
 45 43  2  0
 46 44  1  0
 47 45  1  0
 26 48  1  1
 30 31  1  0
 26 28  1  0
 46 47  2  0
M  CHG  3  12  -1  36  -1  49   2
M  END

> <chembl_id>
CHEMBL2105364

> <chembl_pref_name>
PENICILLIN CALCIUM

$$$$

     RDKit          2D

 42 45  0  0  0  0  0  0  0  0999 V2000
   16.5012   -0.9505    0.0000 N   0  0  0  0  0  0  0  0  0  0  0  0
   13.9070    2.0565    0.0000 N   0  0  0  0  0  0  0  0  0  0  0  0
   12.6109    4.3104    0.0000 C   0  0  0  0  0  0  0  0  0  0  0  0
   17.7973   -3.2044    0.0000 C   0  0  0  0  0  0  0  0  0  0  0  0
   16.4991   -2.4513    0.0000 C   0  0  0  0  0  0  0  0  0  0  0  0
   13.9091    3.5573    0.0000 C   0  0  0  0  0  0  0  0  0  0  0  0
   15.2030   -0.1974    0.0000 C   0  0  0  0  0  0  0  0  0  0  0  0
   15.2052    1.3034    0.0000 C   0  0  0  0  0  0  0  0  0  0  0  0
   12.6109    5.8104    0.0000 C   0  0  0  0  0  0  0  0  0  0  0  0
   11.3118    3.5604    0.0000 C   0  0  0  0  0  0  0  0  0  0  0  0
   17.7974   -4.7044    0.0000 C   0  0  0  0  0  0  0  0  0  0  0  0
   19.0965   -2.4544    0.0000 C   0  0  0  0  0  0  0  0  0  0  0  0
   11.3118    6.5604    0.0000 C   0  0  0  0  0  0  0  0  0  0  0  0
   19.0964   -5.4544    0.0000 C   0  0  0  0  0  0  0  0  0  0  0  0
   20.3955   -3.2045    0.0000 C   0  0  0  0  0  0  0  0  0  0  0  0
   10.0128    4.3104    0.0000 C   0  0  0  0  0  0  0  0  0  0  0  0
   10.0128    5.8104    0.0000 C   0  0  0  0  0  0  0  0  0  0  0  0
   20.3954   -4.7045    0.0000 C   0  0  0  0  0  0  0  0  0  0  0  0
    4.4028    0.2427    0.0000 N   0  0  0  0  0  0  0  0  0  0  0  0
    2.9467    0.5893    0.0000 C   0  0  0  0  0  0  0  0  0  0  0  0
    4.0387   -1.2480    0.0000 C   0  0  0  0  0  0  0  0  0  0  0  0
    2.5654   -0.9014    0.0000 C   0  0  0  0  0  0  0  0  0  0  0  0
    5.1654    1.5080    0.0000 C   0  0  0  0  0  0  0  0  0  0  0  0
    2.8254    2.0454    0.0000 S   0  0  0  0  0  0  0  0  0  0  0  0
    4.1948    2.6347    0.0000 C   0  0  0  0  0  0  0  0  0  0  0  0
    1.2872   -1.6752    0.0000 N   0  0  0  0  0  0  0  0  0  0  0  0
    6.6590    1.6292    0.0000 C   0  0  0  0  0  0  0  0  0  0  0  0
   -0.0284   -0.9529    0.0000 C   0  0  0  0  0  0  0  0  0  0  0  0
    4.6661   -2.2710    0.0000 O   0  0  0  0  0  0  0  0  0  0  0  0
    7.3417    0.6422    0.0000 O   0  0  0  0  0  0  0  0  0  0  0  0
   -0.0538    0.2468    0.0000 O   0  0  0  0  0  0  0  0  0  0  0  0
   -1.3122   -1.7303    0.0000 C   0  0  0  0  0  0  0  0  0  0  0  0
    7.1727    2.7136    0.0000 O   0  0  0  0  0  0  0  0  0  0  0  0
    5.3472    2.9691    0.0000 C   0  0  0  0  0  0  0  0  0  0  0  0
    3.3052    3.4401    0.0000 C   0  0  0  0  0  0  0  0  0  0  0  0
   -2.6278   -1.0080    0.0000 C   0  0  0  0  0  0  0  0  0  0  0  0
   -3.9121   -1.7831    0.0000 C   0  0  0  0  0  0  0  0  0  0  0  0
   -2.6571    0.4918    0.0000 C   0  0  0  0  0  0  0  0  0  0  0  0
   -5.2255   -1.0586    0.0000 C   0  0  0  0  0  0  0  0  0  0  0  0
   -3.9705    1.2163    0.0000 C   0  0  0  0  0  0  0  0  0  0  0  0
   -5.2547    0.4411    0.0000 C   0  0  0  0  0  0  0  0  0  0  0  0
    1.9502    0.6729    0.0000 H   0  0  0  0  0  0  0  0  0  0  0  0
  2  8  1  0
  3  6  1  0
  4  5  1  0
  5  1  1  0
  6  2  1  0
  7  1  1  0
  8  7  1  0
  9  3  2  0
 10  3  1  0
 11  4  2  0
 12  4  1  0
 13  9  1  0
 14 11  1  0
 15 12  2  0
 16 10  2  0
 17 13  2  0
 18 15  1  0
 18 14  2  0
 16 17  1  0
 20 19  1  0
 21 19  1  0
 22 20  1  0
 23 19  1  0
 24 20  1  0
 25 23  1  0
 22 26  1  1
 23 27  1  6
 28 26  1  0
 29 21  2  0
 30 27  2  0
 31 28  2  0
 32 28  1  0
 33 27  1  0
 34 25  1  0
 35 25  1  0
 36 32  1  0
 37 36  2  0
 38 36  1  0
 39 37  1  0
 40 38  2  0
 41 40  1  0
 20 42  1  6
 24 25  1  0
 21 22  1  0
 41 39  2  0
M  END

> <chembl_id>
CHEMBL1200651

> <chembl_pref_name>
PENICILLIN G BENZATHINE

$$$$

     RDKit          2D

 29 31  0  0  1  0  0  0  0  0999 V2000
    5.7125   -5.8875    0.0000 N   0  0  0  0  0  0  0  0  0  0  0  0
    5.4125   -6.5417    0.0000 C   0  0  0  0  0  0  0  0  0  0  0  0
    5.0500   -5.5875    0.0000 C   0  0  0  0  0  0  0  0  0  0  0  0
    4.7542   -6.2417    0.0000 C   0  0  0  0  0  0  0  0  0  0  0  0
    6.4292   -5.9667    0.0000 C   0  0  0  0  0  0  0  0  0  0  0  0
    5.9500   -7.0292    0.0000 S   0  0  0  0  0  0  0  0  0  0  0  0
    6.5750   -6.6792    0.0000 C   0  0  0  0  0  0  0  0  0  0  0  0
    3.0792   -3.9042    0.0000 S   0  0  0  0  0  0  0  0  0  0  0  0
    4.0542   -5.7542    0.0000 N   0  0  0  0  0  0  0  0  0  0  0  0
    3.6042   -5.2167    0.0000 C   0  0  0  0  0  0  0  0  0  0  0  0
    2.8792   -5.2542    0.0000 C   0  0  0  0  0  0  0  0  0  0  0  0
    2.7125   -4.5417    0.0000 N   0  0  0  0  0  0  0  0  0  0  0  0
    7.1542   -5.8250    0.0000 C   0  0  0  0  0  0  0  0  0  0  0  0
    4.9750   -5.0000    0.0000 O   0  0  0  0  0  0  0  0  0  0  0  0
    3.6917   -4.1750    0.0000 O   0  0  0  0  0  0  0  0  0  0  0  0
    2.4917   -3.6375    0.0000 O   0  0  0  0  0  0  0  0  0  0  0  0
    3.8625   -4.6542    0.0000 O   0  0  0  0  0  0  0  0  0  0  0  0
    2.5542   -5.9250    0.0000 C   0  0  0  0  0  0  0  0  0  0  0  0
    7.6125   -6.3667    0.0000 O   0  0  0  0  0  0  0  0  0  0  0  0
    7.3875   -5.1542    0.0000 O   0  0  0  0  0  0  0  0  0  0  0  0
    3.3417   -3.3167    0.0000 O   0  0  0  0  0  0  0  0  0  0  0  0
    6.9292   -7.3042    0.0000 C   0  0  0  0  0  0  0  0  0  0  0  0
    7.2917   -6.5917    0.0000 C   0  0  0  0  0  0  0  0  0  0  0  0
    1.8292   -5.9167    0.0000 C   0  0  0  0  0  0  0  0  0  0  0  0
    2.9167   -6.5167    0.0000 C   0  0  0  0  0  0  0  0  0  0  0  0
    2.6250   -7.1417    0.0000 C   0  0  0  0  0  0  0  0  0  0  0  0
    1.4792   -6.5750    0.0000 C   0  0  0  0  0  0  0  0  0  0  0  0
    1.8292   -7.1417    0.0000 C   0  0  0  0  0  0  0  0  0  0  0  0
    4.8627   -7.3770    0.0000 H   0  0  0  0  0  0  0  0  0  0  0  0
  2  1  1  0
  3  1  1  0
  4  3  1  0
  5  1  1  0
  6  2  1  0
  7  5  1  0
  8 12  1  0
  4  9  1  6
 10  9  1  0
 11 10  1  0
 11 12  1  1
  5 13  1  1
 14  3  2  0
 15  8  2  0
 16  8  2  0
 17 10  2  0
 11 18  1  0
 19 13  1  0
 20 13  2  0
 21  8  1  0
 22  7  1  0
 23  7  1  0
 24 18  1  0
 25 18  2  0
 26 25  1  0
 27 24  2  0
 28 27  1  0
  6  7  1  0
  2  4  1  0
 26 28  2  0
  2 29  1  1
M  END

> <chembl_id>
CHEMBL2111139

> <chembl_pref_name>
SUNCILLIN

$$$$

     RDKit          2D

 31 34  0  0  1  0  0  0  0  0999 V2000
   -0.9250   -0.8375    0.0000 N   0  0  0  0  0  0  0  0  0  0  0  0
    0.7542    0.0333    0.0000 N   0  0  0  0  0  0  0  0  0  0  0  0
   -0.0875   -0.8167    0.0000 C   0  0  0  0  0  0  0  0  0  0  0  0
    0.7542   -0.8167    0.0000 C   0  0  0  0  0  0  0  0  0  0  0  0
   -0.0875    0.0333    0.0000 C   0  0  0  0  0  0  0  0  0  0  0  0
   -1.4458   -0.1667    0.0000 C   0  0  0  0  0  0  0  0  0  0  0  0
   -1.3958   -1.5167    0.0000 C   0  0  0  0  0  0  0  0  0  0  0  0
    1.5667    0.2833    0.0000 C   0  0  0  0  0  0  0  0  0  0  0  0
    1.5667   -1.0750    0.0000 S   0  0  0  0  0  0  0  0  0  0  0  0
   -2.1875   -1.2875    0.0000 N   0  0  0  0  0  0  0  0  0  0  0  0
    2.0625   -0.4125    0.0000 C   0  0  0  0  0  0  0  0  0  0  0  0
   -2.2208   -0.4542    0.0000 C   0  0  0  0  0  0  0  0  0  0  0  0
    2.2667    0.7833    0.0000 C   0  0  0  0  0  0  0  0  0  0  0  0
   -0.6833    0.6375    0.0000 O   0  0  0  0  0  0  0  0  0  0  0  0
   -1.2208    0.6375    0.0000 O   0  0  0  0  0  0  0  0  0  0  0  0
   -2.9083    0.0083    0.0000 C   0  0  0  0  0  0  0  0  0  0  0  0
    3.0167    0.4208    0.0000 O   0  0  0  0  0  0  0  0  0  0  0  0
    2.1917    1.6125    0.0000 O   0  0  0  0  0  0  0  0  0  0  0  0
   -1.5708   -2.1542    0.0000 C   0  0  0  0  0  0  0  0  0  0  0  0
   -0.8458   -1.9125    0.0000 C   0  0  0  0  0  0  0  0  0  0  0  0
    3.7167    0.8833    0.0000 C   0  0  0  0  0  0  0  0  0  0  0  0
    2.7417   -0.9042    0.0000 C   0  0  0  0  0  0  0  0  0  0  0  0
    2.7792    0.0333    0.0000 C   0  0  0  0  0  0  0  0  0  0  0  0
    3.6542    1.7208    0.0000 O   0  0  0  0  0  0  0  0  0  0  0  0
   -3.6583   -0.3625    0.0000 C   0  0  0  0  0  0  0  0  0  0  0  0
   -2.8583    0.8458    0.0000 C   0  0  0  0  0  0  0  0  0  0  0  0
    4.3417    2.1625    0.0000 C   0  0  0  0  0  0  0  0  0  0  0  0
   -4.3458    0.1125    0.0000 C   0  0  0  0  0  0  0  0  0  0  0  0
   -3.5333    1.3083    0.0000 C   0  0  0  0  0  0  0  0  0  0  0  0
   -4.2833    0.9458    0.0000 C   0  0  0  0  0  0  0  0  0  0  0  0
    0.6009   -1.8049    0.0000 H   0  0  0  0  0  0  0  0  0  0  0  0
  2  5  1  0
  3  1  1  6
  4  3  1  0
  5  3  1  0
  6  1  1  0
  7  1  1  0
  8  2  1  0
  9  4  1  0
 10  7  1  0
 11  9  1  0
 12  6  1  0
  8 13  1  1
 14  5  2  0
 15  6  2  0
 16 12  1  0
 17 13  1  0
 18 13  2  0
 19  7  1  0
 20  7  1  0
 21 17  1  0
 22 11  1  0
 23 11  1  0
 24 21  1  0
 25 16  1  0
 26 16  2  0
 27 24  1  0
 28 25  2  0
 29 26  1  0
 30 29  2  0
 12 10  1  0
  4  2  1  0
  8 11  1  0
 28 30  1  0
  4 31  1  1
M  END

> <chembl_id>
CHEMBL2105404

> <chembl_pref_name>
SARPICILLIN

$$$$

     RDKit          2D

 26 27  0  0  0  0  0  0  0  0999 V2000
    9.0167   -9.1542    0.0000 K   0  0  0  0  0 15  0  0  0  0  0  0
    7.1125   -7.9042    0.0000 N   0  0  0  0  0  0  0  0  0  0  0  0
    7.1125   -7.2000    0.0000 C   0  0  0  0  0  0  0  0  0  0  0  0
    6.4000   -7.9042    0.0000 C   0  0  0  0  0  0  0  0  0  0  0  0
    6.4000   -7.2000    0.0000 C   0  0  0  0  0  0  0  0  0  0  0  0
    7.7875   -8.1167    0.0000 C   0  0  0  0  0  0  0  0  0  0  0  0
    7.7792   -6.9750    0.0000 S   0  0  0  0  0  0  0  0  0  0  0  0
    8.2042   -7.5417    0.0000 C   0  0  0  0  0  0  0  0  0  0  0  0
    7.7792   -8.8292    0.0000 C   0  0  0  0  0  0  0  0  0  0  0  0
    5.7792   -6.8417    0.0000 N   0  0  0  0  0  0  0  0  0  0  0  0
    5.1667   -7.1917    0.0000 C   0  0  0  0  0  0  0  0  0  0  0  0
    5.9000   -8.4042    0.0000 O   0  0  0  0  0  0  0  0  0  0  0  0
    8.3917   -9.1875    0.0000 O   0  0  0  0  0  0  0  0  0  0  0  0
    7.1625   -9.1750    0.0000 O   0  0  0  0  0  0  0  0  0  0  0  0
    5.1667   -7.9042    0.0000 O   0  0  0  0  0  0  0  0  0  0  0  0
    3.9417   -7.1917    0.0000 O   0  0  0  0  0  0  0  0  0  0  0  0
    4.5542   -6.8417    0.0000 C   0  0  0  0  0  0  0  0  0  0  0  0
    8.8167   -7.1875    0.0000 C   0  0  0  0  0  0  0  0  0  0  0  0
    8.8167   -7.9000    0.0000 C   0  0  0  0  0  0  0  0  0  0  0  0
    3.3292   -6.8417    0.0000 C   0  0  0  0  0  0  0  0  0  0  0  0
    2.7167   -7.1917    0.0000 C   0  0  0  0  0  0  0  0  0  0  0  0
    3.3292   -6.1292    0.0000 C   0  0  0  0  0  0  0  0  0  0  0  0
    2.7167   -5.7750    0.0000 C   0  0  0  0  0  0  0  0  0  0  0  0
    2.1042   -6.8417    0.0000 C   0  0  0  0  0  0  0  0  0  0  0  0
    2.1042   -6.1292    0.0000 C   0  0  0  0  0  0  0  0  0  0  0  0
    7.1042   -6.4875    0.0000 H   0  0  0  0  0  0  0  0  0  0  0  0
  3  2  1  0
  4  2  1  0
  5  4  1  0
  6  2  1  0
  7  3  1  0
  8  6  1  0
  6  9  1  6
  5 10  1  1
 11 10  1  0
 12  4  2  0
 13  9  1  0
 14  9  2  0
 15 11  2  0
 16 17  1  0
 17 11  1  0
 18  8  1  0
 19  8  1  0
 20 16  1  0
 21 20  1  0
 22 20  2  0
 23 22  1  0
 24 21  2  0
 25 24  1  0
  3 26  1  6
  7  8  1  0
  5  3  1  0
 25 23  2  0
M  CHG  2   1   1  13  -1
M  END

> <chembl_id>
CHEMBL1200852

> <chembl_pref_name>
PENICILLIN V POTASSIUM

$$$$

     RDKit          2D

 69 73  0  0  0  0  0  0  0  0999 V2000
   11.1757    0.5377    0.0000 N   0  0  0  0  0  0  0  0  0  0  0  0
    9.0297    0.1308    0.0000 N   0  0  0  0  0  0  0  0  0  0  0  0
   12.6048    0.5377    0.0000 C   0  0  0  0  0  0  0  0  0  0  0  0
    7.6007    0.1308    0.0000 C   0  0  0  0  0  0  0  0  0  0  0  0
    8.3176    0.5377    0.0000 C   0  0  0  0  0  0  0  0  0  0  0  0
   11.8927    0.1308    0.0000 C   0  0  0  0  0  0  0  0  0  0  0  0
    9.7515    0.5377    0.0000 C   0  0  0  0  0  0  0  0  0  0  0  0
   10.4636    0.1308    0.0000 C   0  0  0  0  0  0  0  0  0  0  0  0
    7.6055   -0.6879    0.0000 C   0  0  0  0  0  0  0  0  0  0  0  0
   13.3266    0.1259    0.0000 C   0  0  0  0  0  0  0  0  0  0  0  0
   12.6048    1.3612    0.0000 C   0  0  0  0  0  0  0  0  0  0  0  0
    6.8885    0.5474    0.0000 C   0  0  0  0  0  0  0  0  0  0  0  0
    6.1764    0.1308    0.0000 C   0  0  0  0  0  0  0  0  0  0  0  0
    6.8934   -1.1094    0.0000 C   0  0  0  0  0  0  0  0  0  0  0  0
   14.0387    0.5328    0.0000 C   0  0  0  0  0  0  0  0  0  0  0  0
   13.3169    1.7827    0.0000 C   0  0  0  0  0  0  0  0  0  0  0  0
   14.0436    1.3612    0.0000 C   0  0  0  0  0  0  0  0  0  0  0  0
    6.1764   -0.6976    0.0000 C   0  0  0  0  0  0  0  0  0  0  0  0
    2.3543    0.1744    0.0000 N   0  0  0  0  0  0  0  0  0  0  0  0
    2.3543   -0.6443    0.0000 C   0  0  0  0  0  0  0  0  0  0  0  0
    1.5308    0.1744    0.0000 C   0  0  0  0  0  0  0  0  0  0  0  0
    1.5308   -0.6443    0.0000 C   0  0  0  0  0  0  0  0  0  0  0  0
    3.1536    0.4360    0.0000 C   0  0  0  0  0  0  0  0  0  0  0  0
    3.1536   -0.9010    0.0000 S   0  0  0  0  0  0  0  0  0  0  0  0
    3.6235   -0.2471    0.0000 C   0  0  0  0  0  0  0  0  0  0  0  0
    0.5571   -0.4554    0.0000 N   0  0  0  0  0  0  0  0  0  0  0  0
    3.8270    0.9156    0.0000 C   0  0  0  0  0  0  0  0  0  0  0  0
   -0.1695   -0.1066    0.0000 C   0  0  0  0  0  0  0  0  0  0  0  0
    1.0512    0.8816    0.0000 O   0  0  0  0  0  0  0  0  0  0  0  0
    4.6263    0.8235    0.0000 O   0  0  0  0  0  0  0  0  0  0  0  0
   -0.1695    0.5764    0.0000 O   0  0  0  0  0  0  0  0  0  0  0  0
   -1.5937   -0.0630    0.0000 O   0  0  0  0  0  0  0  0  0  0  0  0
   -0.8962   -0.4990    0.0000 C   0  0  0  0  0  0  0  0  0  0  0  0
    3.7495    1.7391    0.0000 O   0  0  0  0  0  0  0  0  0  0  0  0
    4.2921   -0.7412    0.0000 C   0  0  0  0  0  0  0  0  0  0  0  0
    4.3308    0.1744    0.0000 C   0  0  0  0  0  0  0  0  0  0  0  0
   -2.3204   -0.4409    0.0000 C   0  0  0  0  0  0  0  0  0  0  0  0
   -2.3252   -1.2692    0.0000 C   0  0  0  0  0  0  0  0  0  0  0  0
   -3.0179   -0.0049    0.0000 C   0  0  0  0  0  0  0  0  0  0  0  0
   -3.0810   -1.6567    0.0000 C   0  0  0  0  0  0  0  0  0  0  0  0
   -3.7349   -0.4069    0.0000 C   0  0  0  0  0  0  0  0  0  0  0  0
   -3.7591   -1.2111    0.0000 C   0  0  0  0  0  0  0  0  0  0  0  0
    2.1995   -1.6323    0.0000 H   0  0  0  0  0  0  0  0  0  0  0  0
    2.2720   -4.6360    0.0000 N   0  0  0  0  0  0  0  0  0  0  0  0
    2.2720   -5.4547    0.0000 C   0  0  0  0  0  0  0  0  0  0  0  0
    1.4436   -4.6360    0.0000 C   0  0  0  0  0  0  0  0  0  0  0  0
    1.4436   -5.4547    0.0000 C   0  0  0  0  0  0  0  0  0  0  0  0
    3.0713   -4.3744    0.0000 C   0  0  0  0  0  0  0  0  0  0  0  0
    3.0713   -5.7114    0.0000 S   0  0  0  0  0  0  0  0  0  0  0  0
    3.5460   -5.0574    0.0000 C   0  0  0  0  0  0  0  0  0  0  0  0
    3.7495   -3.8948    0.0000 C   0  0  0  0  0  0  0  0  0  0  0  0
    0.4699   -5.2658    0.0000 N   0  0  0  0  0  0  0  0  0  0  0  0
   -0.2471   -4.9170    0.0000 C   0  0  0  0  0  0  0  0  0  0  0  0
    0.9737   -3.9287    0.0000 O   0  0  0  0  0  0  0  0  0  0  0  0
    3.6671   -3.0713    0.0000 O   0  0  0  0  0  0  0  0  0  0  0  0
    4.5391   -3.9869    0.0000 O   0  0  0  0  0  0  0  0  0  0  0  0
   -0.2471   -4.2339    0.0000 O   0  0  0  0  0  0  0  0  0  0  0  0
   -1.6809   -4.8734    0.0000 O   0  0  0  0  0  0  0  0  0  0  0  0
   -0.9833   -5.3094    0.0000 C   0  0  0  0  0  0  0  0  0  0  0  0
    4.2049   -5.5515    0.0000 C   0  0  0  0  0  0  0  0  0  0  0  0
    4.2485   -4.6360    0.0000 C   0  0  0  0  0  0  0  0  0  0  0  0
   -2.3979   -5.2512    0.0000 C   0  0  0  0  0  0  0  0  0  0  0  0
   -2.4076   -6.0796    0.0000 C   0  0  0  0  0  0  0  0  0  0  0  0
   -3.1051   -4.8152    0.0000 C   0  0  0  0  0  0  0  0  0  0  0  0
   -3.1633   -6.4671    0.0000 C   0  0  0  0  0  0  0  0  0  0  0  0
   -3.8172   -5.2173    0.0000 C   0  0  0  0  0  0  0  0  0  0  0  0
   -3.8463   -6.0215    0.0000 C   0  0  0  0  0  0  0  0  0  0  0  0
    2.1172   -6.4427    0.0000 H   0  0  0  0  0  0  0  0  0  0  0  0
    4.5972   -3.2021    0.0000 K   0  0  0  0  0 15  0  0  0  0  0  0
  2  7  1  0
  3  6  1  0
  4  5  1  0
  5  2  1  0
  6  1  1  0
  7  8  1  0
  8  1  1  0
  9  4  1  0
 10  3  2  0
 11  3  1  0
 12  4  2  0
 13 12  1  0
 14  9  2  0
 15 10  1  0
 16 11  2  0
 17 16  1  0
 18 13  2  0
 17 15  2  0
 18 14  1  0
 20 19  1  0
 21 19  1  0
 22 21  1  0
 23 19  1  0
 24 20  1  0
 25 23  1  0
 22 26  1  6
 23 27  1  1
 28 26  1  0
 29 21  2  0
 30 27  2  0
 31 28  2  0
 32 33  1  0
 33 28  1  0
 34 27  1  0
 35 25  1  0
 36 25  1  0
 37 32  1  0
 38 37  1  0
 39 37  2  0
 40 38  2  0
 41 39  1  0
 42 41  2  0
 25 24  1  0
 22 20  1  0
 42 40  1  0
 20 43  1  1
 45 44  1  0
 46 44  1  0
 47 46  1  0
 48 44  1  0
 49 45  1  0
 50 48  1  0
 48 51  1  1
 47 52  1  6
 53 52  1  0
 54 46  2  0
 55 51  1  0
 56 51  2  0
 57 53  2  0
 58 59  1  0
 59 53  1  0
 60 50  1  0
 61 50  1  0
 62 58  1  0
 63 62  1  0
 64 62  2  0
 65 63  2  0
 66 64  1  0
 67 66  2  0
 50 49  1  0
 47 45  1  0
 67 65  1  0
 45 68  1  1
M  CHG  2  55  -1  69   1
M  END

> <chembl_id>
CHEMBL2103963

> <chembl_pref_name>
BICILLIN V2

$$$$

     RDKit          2D

 40 43  0  0  0  0  0  0  0  0999 V2000
    0.6375   -2.1167    0.0000 N   0  0  0  0  0  0  0  0  0  0  0  0
   -0.7833   -1.8292    0.0000 C   0  0  0  0  0  0  0  0  0  0  0  0
    2.8292   -2.0667    0.0000 C   0  0  0  0  0  0  0  0  0  0  0  0
    0.0292   -1.5667    0.0000 C   0  0  0  0  0  0  0  0  0  0  0  0
    1.4042   -1.7542    0.0000 C   0  0  0  0  0  0  0  0  0  0  0  0
    2.0042   -2.3167    0.0000 C   0  0  0  0  0  0  0  0  0  0  0  0
    3.0667   -1.3500    0.0000 C   0  0  0  0  0  0  0  0  0  0  0  0
    3.3625   -2.6250    0.0000 C   0  0  0  0  0  0  0  0  0  0  0  0
   -1.3208   -1.2917    0.0000 C   0  0  0  0  0  0  0  0  0  0  0  0
   -0.9958   -2.5500    0.0000 C   0  0  0  0  0  0  0  0  0  0  0  0
    3.8292   -1.1875    0.0000 C   0  0  0  0  0  0  0  0  0  0  0  0
    4.1167   -2.4542    0.0000 C   0  0  0  0  0  0  0  0  0  0  0  0
   -2.0708   -1.4917    0.0000 C   0  0  0  0  0  0  0  0  0  0  0  0
   -1.7500   -2.7375    0.0000 C   0  0  0  0  0  0  0  0  0  0  0  0
    4.3417   -1.7417    0.0000 C   0  0  0  0  0  0  0  0  0  0  0  0
   -2.2708   -2.2042    0.0000 C   0  0  0  0  0  0  0  0  0  0  0  0
    0.4125    1.0333    0.0000 N   0  0  0  0  0  0  0  0  0  0  0  0
    0.4125    0.2333    0.0000 C   0  0  0  0  0  0  0  0  0  0  0  0
   -0.3625    1.0250    0.0000 C   0  0  0  0  0  0  0  0  0  0  0  0
   -0.3750    0.2208    0.0000 C   0  0  0  0  0  0  0  0  0  0  0  0
    1.1667    1.2750    0.0000 C   0  0  0  0  0  0  0  0  0  0  0  0
    1.1667   -0.0167    0.0000 S   0  0  0  0  0  0  0  0  0  0  0  0
    1.6417    0.6333    0.0000 C   0  0  0  0  0  0  0  0  0  0  0  0
   -0.9375   -0.3375    0.0000 N   0  0  0  0  0  0  0  0  0  0  0  0
    1.4167    2.0333    0.0000 C   0  0  0  0  0  0  0  0  0  0  0  0
   -1.6500    0.0083    0.0000 C   0  0  0  0  0  0  0  0  0  0  0  0
   -0.9250    1.5875    0.0000 O   0  0  0  0  0  0  0  0  0  0  0  0
    0.8792    2.6458    0.0000 O   0  0  0  0  0  0  0  0  0  0  0  0
   -1.7833    0.7833    0.0000 O   0  0  0  0  0  0  0  0  0  0  0  0
   -2.2083   -0.5542    0.0000 C   0  0  0  0  0  0  0  0  0  0  0  0
    2.1542    2.2083    0.0000 O   0  0  0  0  0  0  0  0  0  0  0  0
    2.3167    0.2333    0.0000 C   0  0  0  0  0  0  0  0  0  0  0  0
    2.3167    1.0208    0.0000 C   0  0  0  0  0  0  0  0  0  0  0  0
   -2.9208   -0.2042    0.0000 C   0  0  0  0  0  0  0  0  0  0  0  0
   -2.9833    0.5833    0.0000 C   0  0  0  0  0  0  0  0  0  0  0  0
   -3.5750   -0.6542    0.0000 C   0  0  0  0  0  0  0  0  0  0  0  0
   -3.6958    0.9208    0.0000 C   0  0  0  0  0  0  0  0  0  0  0  0
   -4.2875   -0.3167    0.0000 C   0  0  0  0  0  0  0  0  0  0  0  0
   -4.3458    0.4750    0.0000 C   0  0  0  0  0  0  0  0  0  0  0  0
    0.2610   -0.7552    0.0000 H   0  0  0  0  0  0  0  0  0  0  0  0
  2  4  1  0
  3  6  1  0
  4  1  1  0
  5  1  1  0
  6  5  1  0
  7  3  1  0
  8  3  2  0
  9  2  2  0
 10  2  1  0
 11  7  2  0
 12  8  1  0
 13  9  1  0
 14 10  2  0
 15 12  2  0
 16 14  1  0
 13 16  2  0
 11 15  1  0
 18 17  1  0
 19 17  1  0
 20 19  1  0
 21 17  1  0
 18 22  1  0
 23 21  1  0
 20 24  1  6
 21 25  1  1
 26 24  1  0
 27 19  2  0
 28 25  2  0
 29 26  2  0
 30 26  1  0
 31 25  1  0
 32 23  1  0
 33 23  1  0
 34 30  1  0
 35 34  1  0
 36 34  2  0
 37 35  2  0
 38 36  1  0
 39 38  2  0
 22 23  1  0
 18 20  1  0
 37 39  1  0
 18 40  1  1
M  END

> <chembl_id>
CHEMBL2107679

> <chembl_pref_name>
BENETHAMINE PENICILLIN

$$$$

     RDKit          2D

 33 36  0  0  1  0  0  0  0  0999 V2000
    5.7250   -4.8292    0.0000 N   0  0  0  0  0  0  0  0  0  0  0  0
    5.7250   -5.5500    0.0000 C   0  0  0  0  0  0  0  0  0  0  0  0
    5.0167   -4.8292    0.0000 C   0  0  0  0  0  0  0  0  0  0  0  0
    5.0167   -5.5500    0.0000 C   0  0  0  0  0  0  0  0  0  0  0  0
    6.4125   -4.6167    0.0000 C   0  0  0  0  0  0  0  0  0  0  0  0
    6.4125   -5.7542    0.0000 S   0  0  0  0  0  0  0  0  0  0  0  0
    6.8167   -5.2000    0.0000 C   0  0  0  0  0  0  0  0  0  0  0  0
    3.8125   -5.8417    0.0000 C   0  0  0  0  0  0  0  0  0  0  0  0
    4.3292   -5.3542    0.0000 N   0  0  0  0  0  0  0  0  0  0  0  0
    2.9792   -4.9542    0.0000 C   0  0  0  0  0  0  0  0  0  0  0  0
    3.1250   -5.6417    0.0000 C   0  0  0  0  0  0  0  0  0  0  0  0
    6.9917   -4.2042    0.0000 C   0  0  0  0  0  0  0  0  0  0  0  0
    3.4917   -4.4750    0.0000 O   0  0  0  0  0  0  0  0  0  0  0  0
    4.5042   -4.3292    0.0000 O   0  0  0  0  0  0  0  0  0  0  0  0
    3.9792   -6.5417    0.0000 O   0  0  0  0  0  0  0  0  0  0  0  0
    2.2917   -4.7667    0.0000 O   0  0  0  0  0  0  0  0  0  0  0  0
    7.6500   -4.4917    0.0000 O   0  0  0  0  0  0  0  0  0  0  0  0
    2.6292   -6.1292    0.0000 C   0  0  0  0  0  0  0  0  0  0  0  0
    6.9250   -3.4792    0.0000 O   0  0  0  0  0  0  0  0  0  0  0  0
    3.3042   -3.7875    0.0000 C   0  0  0  0  0  0  0  0  0  0  0  0
    7.4250   -4.8292    0.0000 C   0  0  0  0  0  0  0  0  0  0  0  0
    7.4042   -5.6125    0.0000 C   0  0  0  0  0  0  0  0  0  0  0  0
    1.9667   -5.9292    0.0000 C   0  0  0  0  0  0  0  0  0  0  0  0
    2.8042   -6.8167    0.0000 C   0  0  0  0  0  0  0  0  0  0  0  0
    2.6292   -3.5917    0.0000 C   0  0  0  0  0  0  0  0  0  0  0  0
    3.8292   -3.2917    0.0000 C   0  0  0  0  0  0  0  0  0  0  0  0
    1.4417   -6.4292    0.0000 C   0  0  0  0  0  0  0  0  0  0  0  0
    2.3125   -7.2917    0.0000 C   0  0  0  0  0  0  0  0  0  0  0  0
    2.4667   -2.9042    0.0000 C   0  0  0  0  0  0  0  0  0  0  0  0
    3.6542   -2.6125    0.0000 C   0  0  0  0  0  0  0  0  0  0  0  0
    2.9792   -2.4250    0.0000 C   0  0  0  0  0  0  0  0  0  0  0  0
    1.6167   -7.1167    0.0000 C   0  0  0  0  0  0  0  0  0  0  0  0
    5.5811   -6.5396    0.0000 H   0  0  0  0  0  0  0  0  0  0  0  0
  2  1  1  0
  3  1  1  0
  4  3  1  0
  5  1  1  0
  6  2  1  0
  7  5  1  0
  8  9  1  0
  4  9  1  6
 10 11  1  0
 11  8  1  0
  5 12  1  1
 13 10  1  0
 14  3  2  0
 15  8  2  0
 16 10  2  0
 17 12  1  0
 18 11  1  0
 19 12  2  0
 20 13  1  0
 21  7  1  0
 22  7  1  0
 23 18  1  0
 24 18  2  0
 25 20  1  0
 26 20  2  0
 27 23  2  0
 28 24  1  0
 29 25  2  0
 30 26  1  0
 31 29  1  0
 32 27  1  0
  6  7  1  0
  2  4  1  0
 28 32  2  0
 30 31  2  0
  2 33  1  1
M  END

> <chembl_id>
CHEMBL1095283

> <chembl_pref_name>
CARBENICILLIN PHENYL

$$$$

     RDKit          2D

 33 36  0  0  1  0  0  0  0  0999 V2000
    0.7063   -0.7259    0.0000 N   0  0  0  0  0  0  0  0  0  0  0  0
    0.7063   -1.5509    0.0000 C   0  0  0  0  0  0  0  0  0  0  0  0
   -0.1145   -0.7206    0.0000 C   0  0  0  0  0  0  0  0  0  0  0  0
   -0.1145   -1.5509    0.0000 C   0  0  0  0  0  0  0  0  0  0  0  0
    1.4909   -0.4709    0.0000 C   0  0  0  0  0  0  0  0  0  0  0  0
    1.4909   -1.8058    0.0000 S   0  0  0  0  0  0  0  0  0  0  0  0
    1.9758   -1.1384    0.0000 C   0  0  0  0  0  0  0  0  0  0  0  0
   -0.6979   -2.1342    0.0000 N   0  0  0  0  0  0  0  0  0  0  0  0
    2.2557    1.8829    0.0000 C   0  0  0  0  0  0  0  0  0  0  0  0
    1.0997    2.5504    0.0000 C   0  0  0  0  0  0  0  0  0  0  0  0
   -1.4948   -1.9207    0.0000 C   0  0  0  0  0  0  0  0  0  0  0  0
    1.4352    1.7967    0.0000 O   0  0  0  0  0  0  0  0  0  0  0  0
    1.7128    3.1024    0.0000 O   0  0  0  0  0  0  0  0  0  0  0  0
    2.4272    2.6899    0.0000 C   0  0  0  0  0  0  0  0  0  0  0  0
    1.7458    0.3137    0.0000 C   0  0  0  0  0  0  0  0  0  0  0  0
   -2.0910   -2.4909    0.0000 C   0  0  0  0  0  0  0  0  0  0  0  0
   -0.6960   -0.1353    0.0000 O   0  0  0  0  0  0  0  0  0  0  0  0
    2.5528    0.4852    0.0000 O   0  0  0  0  0  0  0  0  0  0  0  0
    2.8077    1.2698    0.0000 C   0  0  0  0  0  0  0  0  0  0  0  0
    0.2906    2.6764    0.0000 O   0  0  0  0  0  0  0  0  0  0  0  0
   -1.7083   -1.1238    0.0000 O   0  0  0  0  0  0  0  0  0  0  0  0
    1.1938    0.9268    0.0000 O   0  0  0  0  0  0  0  0  0  0  0  0
   -1.8952   -3.2924    0.0000 C   0  0  0  0  0  0  0  0  0  0  0  0
   -2.8829   -2.2598    0.0000 N   0  0  0  0  0  0  0  0  0  0  0  0
    2.6458   -1.6198    0.0000 C   0  0  0  0  0  0  0  0  0  0  0  0
    2.6458   -0.6569    0.0000 C   0  0  0  0  0  0  0  0  0  0  0  0
    3.1805    3.0253    0.0000 C   0  0  0  0  0  0  0  0  0  0  0  0
   -1.1128   -3.5541    0.0000 C   0  0  0  0  0  0  0  0  0  0  0  0
   -2.5131   -3.8391    0.0000 C   0  0  0  0  0  0  0  0  0  0  0  0
   -2.3485   -4.6475    0.0000 C   0  0  0  0  0  0  0  0  0  0  0  0
   -0.9483   -4.3625    0.0000 C   0  0  0  0  0  0  0  0  0  0  0  0
   -1.5661   -4.9092    0.0000 C   0  0  0  0  0  0  0  0  0  0  0  0
    0.5785   -2.3659    0.0000 H   0  0  0  0  0  0  0  0  0  0  0  0
  2  1  1  0
  3  1  1  0
  4  3  1  0
  5  1  1  0
  6  2  1  0
  7  5  1  0
  4  8  1  6
  9 19  1  0
 10 12  1  0
 11  8  1  0
 12  9  1  0
 13 14  1  0
 14  9  2  0
  5 15  1  1
 16 11  1  0
 17  3  2  0
 18 15  1  0
 19 18  1  0
 20 10  2  0
 21 11  2  0
 22 15  2  0
 23 16  1  0
 16 24  1  1
 25  7  1  0
 26  7  1  0
 27 14  1  0
 28 23  2  0
 29 23  1  0
 30 29  2  0
 31 28  1  0
 32 30  1  0
  6  7  1  0
  2  4  1  0
 10 13  1  0
 31 32  2  0
  2 33  1  1
M  END


> <chembl_id>
CHEMBL3580454

> <chembl_pref_name>
LENAMPICILLIN

$$$$

     RDKit          2D

 28 32  0  0  1  0  0  0  0  0999 V2000
    1.8000    0.5583    0.0000 N   0  0  0  0  0  0  0  0  0  0  0  0
    1.8000   -0.3542    0.0000 C   0  0  0  0  0  0  0  0  0  0  0  0
    0.8792    0.5583    0.0000 C   0  0  0  0  0  0  0  0  0  0  0  0
    0.8792   -0.3542    0.0000 C   0  0  0  0  0  0  0  0  0  0  0  0
    2.6792    0.8333    0.0000 C   0  0  0  0  0  0  0  0  0  0  0  0
    2.6792   -0.6375    0.0000 S   0  0  0  0  0  0  0  0  0  0  0  0
    3.2167    0.0833    0.0000 C   0  0  0  0  0  0  0  0  0  0  0  0
   -1.9208   -1.2417    0.0000 C   0  0  0  0  0  0  0  0  0  0  0  0
   -0.2458   -0.0917    0.0000 N   0  0  0  0  0  0  0  0  0  0  0  0
   -0.8833   -1.0000    0.0000 C   0  0  0  0  0  0  0  0  0  0  0  0
   -3.4583   -0.6792    0.0000 C   0  0  0  0  0  0  0  0  0  0  0  0
    3.2000    1.5083    0.0000 C   0  0  0  0  0  0  0  0  0  0  0  0
   -2.7000   -0.5667    0.0000 C   0  0  0  0  0  0  0  0  0  0  0  0
   -2.6500   -1.0875    0.0000 C   0  0  0  0  0  0  0  0  0  0  0  0
   -2.4333   -1.9417    0.0000 C   0  0  0  0  0  0  0  0  0  0  0  0
    0.2417    1.2125    0.0000 O   0  0  0  0  0  0  0  0  0  0  0  0
   -3.1708   -2.0042    0.0000 C   0  0  0  0  0  0  0  0  0  0  0  0
   -3.3000   -1.3042    0.0000 C   0  0  0  0  0  0  0  0  0  0  0  0
   -0.4250   -1.6375    0.0000 O   0  0  0  0  0  0  0  0  0  0  0  0
   -4.3458   -0.2667    0.0000 C   0  0  0  0  0  0  0  0  0  0  0  0
   -4.1083   -1.4417    0.0000 C   0  0  0  0  0  0  0  0  0  0  0  0
    3.2000    2.3458    0.0000 O   0  0  0  0  0  0  0  0  0  0  0  0
   -3.0083    0.1833    0.0000 N   0  0  0  0  0  0  0  0  0  0  0  0
   -3.9083   -2.4542    0.0000 C   0  0  0  0  0  0  0  0  0  0  0  0
    4.2750    1.5083    0.0000 O   0  0  0  0  0  0  0  0  0  0  0  0
    3.9542   -0.4542    0.0000 C   0  0  0  0  0  0  0  0  0  0  0  0
    3.9917    0.5583    0.0000 C   0  0  0  0  0  0  0  0  0  0  0  0
    1.6448   -1.3421    0.0000 H   0  0  0  0  0  0  0  0  0  0  0  0
  2  1  1  0
  3  1  1  0
  4  3  1  0
  5  1  1  0
  6  2  1  0
  7  5  1  0
  8 10  1  0
  4  9  1  6
 10  9  1  0
 11 13  1  0
  5 12  1  1
 13  8  1  0
 14  8  1  0
 15  8  1  0
 16  3  2  0
 17 15  1  0
 18 14  1  0
 19 10  2  0
 20 18  1  0
 21 17  1  0
 22 12  2  0
 23 11  1  0
 24 17  1  0
 25 12  1  0
 26  7  1  0
 27  7  1  0
  6  7  1  0
  4  2  1  0
 18 24  1  0
 11 21  1  0
 11 20  1  0
  2 28  1  1
M  END

> <chembl_id>
CHEMBL2107667

> <chembl_pref_name>
AMANTOCILLIN

$$$$

     RDKit          2D

 29 32  0  0  1  0  0  0  0  0999 V2000
    0.3417   -0.0792    0.0000 N   0  0  0  0  0  0  0  0  0  0  0  0
    2.1167    0.1625    0.0000 N   0  0  0  0  0  0  0  0  0  0  0  0
    1.1167   -0.3417    0.0000 C   0  0  0  0  0  0  0  0  0  0  0  0
    1.8792   -0.5792    0.0000 C   0  0  0  0  0  0  0  0  0  0  0  0
    1.3500    0.4208    0.0000 C   0  0  0  0  0  0  0  0  0  0  0  0
   -0.3500   -0.4792    0.0000 C   0  0  0  0  0  0  0  0  0  0  0  0
    0.1542    0.7000    0.0000 C   0  0  0  0  0  0  0  0  0  0  0  0
    2.9125    0.1875    0.0000 C   0  0  0  0  0  0  0  0  0  0  0  0
    2.5375   -1.0417    0.0000 S   0  0  0  0  0  0  0  0  0  0  0  0
   -0.6333    0.7708    0.0000 N   0  0  0  0  0  0  0  0  0  0  0  0
    3.1625   -0.5792    0.0000 C   0  0  0  0  0  0  0  0  0  0  0  0
   -0.9583    0.0500    0.0000 C   0  0  0  0  0  0  0  0  0  0  0  0
    3.6792    0.4458    0.0000 C   0  0  0  0  0  0  0  0  0  0  0  0
    1.4792    1.2375    0.0000 O   0  0  0  0  0  0  0  0  0  0  0  0
   -0.4208   -1.3000    0.0000 O   0  0  0  0  0  0  0  0  0  0  0  0
   -1.9833    0.1333    0.0000 C   0  0  0  0  0  0  0  0  0  0  0  0
    3.8625    1.2208    0.0000 O   0  0  0  0  0  0  0  0  0  0  0  0
   -2.3458    0.8083    0.0000 C   0  0  0  0  0  0  0  0  0  0  0  0
   -2.3458   -0.5042    0.0000 C   0  0  0  0  0  0  0  0  0  0  0  0
   -0.1500    1.4500    0.0000 C   0  0  0  0  0  0  0  0  0  0  0  0
    0.6750    1.2375    0.0000 C   0  0  0  0  0  0  0  0  0  0  0  0
    4.2792   -0.0792    0.0000 O   0  0  0  0  0  0  0  0  0  0  0  0
    3.5875   -1.2500    0.0000 C   0  0  0  0  0  0  0  0  0  0  0  0
    3.9292   -0.3167    0.0000 C   0  0  0  0  0  0  0  0  0  0  0  0
   -3.4625    0.1333    0.0000 C   0  0  0  0  0  0  0  0  0  0  0  0
   -3.1000   -0.5042    0.0000 C   0  0  0  0  0  0  0  0  0  0  0  0
   -3.1000    0.8083    0.0000 C   0  0  0  0  0  0  0  0  0  0  0  0
   -4.2458    0.1333    0.0000 O   0  0  0  0  0  0  0  0  0  0  0  0
    1.4378   -1.4765    0.0000 H   0  0  0  0  0  0  0  0  0  0  0  0
  2  5  1  0
  3  1  1  6
  4  3  1  0
  5  3  1  0
  6  1  1  0
  7  1  1  0
  8  2  1  0
  9  4  1  0
 10  7  1  0
 11  9  1  0
 12  6  1  0
  8 13  1  1
 14  5  2  0
 15  6  2  0
 12 16  1  1
 17 13  2  0
 18 16  1  0
 19 16  2  0
 20  7  1  0
 21  7  1  0
 22 13  1  0
 23 11  1  0
 24 11  1  0
 25 26  2  0
 26 19  1  0
 27 18  2  0
 28 25  1  0
 12 10  1  0
  4  2  1  0
  8 11  1  0
 27 25  1  0
  4 29  1  1
M  END

> <chembl_id>
CHEMBL2104590

> <chembl_pref_name>
OXETACILLIN

$$$$

     RDKit          2D

 51 55  0  0  1  0  0  0  0  0999 V2000
    3.2667   -2.0042    0.0000 N   0  0  0  0  0  0  0  0  0  0  0  0
    3.2417   -2.6792    0.0000 C   0  0  0  0  0  0  0  0  0  0  0  0
    2.6542   -1.9875    0.0000 C   0  0  0  0  0  0  0  0  0  0  0  0
    2.5500   -2.6292    0.0000 C   0  0  0  0  0  0  0  0  0  0  0  0
    5.9917   -5.4542    0.0000 S   0  0  0  0  0  0  0  0  0  0  0  0
    3.9292   -1.8667    0.0000 C   0  0  0  0  0  0  0  0  0  0  0  0
    2.3417   -5.3125    0.0000 C   0  0  0  0  0  0  0  0  0  0  0  0
    3.8625   -2.9375    0.0000 S   0  0  0  0  0  0  0  0  0  0  0  0
    4.2750   -2.4792    0.0000 C   0  0  0  0  0  0  0  0  0  0  0  0
    2.6167   -4.7917    0.0000 C   0  0  0  0  0  0  0  0  0  0  0  0
    1.6917   -5.3125    0.0000 C   0  0  0  0  0  0  0  0  0  0  0  0
    1.8125   -2.4292    0.0000 N   0  0  0  0  0  0  0  0  0  0  0  0
    3.3167   -4.7917    0.0000 N   0  0  0  0  0  0  0  0  0  0  0  0
    1.2792   -3.2542    0.0000 C   0  0  0  0  0  0  0  0  0  0  0  0
    1.0875   -4.8875    0.0000 N   0  0  0  0  0  0  0  0  0  0  0  0
    2.6000   -5.8875    0.0000 C   0  0  0  0  0  0  0  0  0  0  0  0
    3.6250   -5.4042    0.0000 C   0  0  0  0  0  0  0  0  0  0  0  0
    1.1125   -4.1167    0.0000 C   0  0  0  0  0  0  0  0  0  0  0  0
    4.5375   -1.5292    0.0000 C   0  0  0  0  0  0  0  0  0  0  0  0
    3.2417   -5.8875    0.0000 C   0  0  0  0  0  0  0  0  0  0  0  0
    5.9917   -4.7292    0.0000 N   0  0  0  0  0  0  0  0  0  0  0  0
    5.4542   -5.4542    0.0000 C   0  0  0  0  0  0  0  0  0  0  0  0
    5.9917   -6.1792    0.0000 O   0  0  0  0  0  0  0  0  0  0  0  0
    6.6375   -5.4542    0.0000 O   0  0  0  0  0  0  0  0  0  0  0  0
    2.2125   -1.4542    0.0000 O   0  0  0  0  0  0  0  0  0  0  0  0
    4.2042   -5.4042    0.0000 C   0  0  0  0  0  0  0  0  0  0  0  0
    0.4292   -4.0292    0.0000 C   0  0  0  0  0  0  0  0  0  0  0  0
    2.3042   -4.2167    0.0000 O   0  0  0  0  0  0  0  0  0  0  0  0
    1.3542   -6.0042    0.0000 O   0  0  0  0  0  0  0  0  0  0  0  0
    0.7750   -2.7250    0.0000 O   0  0  0  0  0  0  0  0  0  0  0  0
    4.5625   -0.8875    0.0000 O   0  0  0  0  0  0  0  0  0  0  0  0
    5.0917   -1.8792    0.0000 O   0  0  0  0  0  0  0  0  0  0  0  0
    5.1792   -4.9167    0.0000 C   0  0  0  0  0  0  0  0  0  0  0  0
    5.1500   -5.9042    0.0000 C   0  0  0  0  0  0  0  0  0  0  0  0
    4.5375   -4.9167    0.0000 C   0  0  0  0  0  0  0  0  0  0  0  0
    4.4917   -5.9042    0.0000 C   0  0  0  0  0  0  0  0  0  0  0  0
   -0.0625   -4.3167    0.0000 C   0  0  0  0  0  0  0  0  0  0  0  0
    0.4292   -3.4500    0.0000 C   0  0  0  0  0  0  0  0  0  0  0  0
    6.5250   -4.0667    0.0000 C   0  0  0  0  0  0  0  0  0  0  0  0
    5.3417   -4.1917    0.0000 C   0  0  0  0  0  0  0  0  0  0  0  0
    4.8750   -2.1792    0.0000 C   0  0  0  0  0  0  0  0  0  0  0  0
    4.7250   -3.0042    0.0000 C   0  0  0  0  0  0  0  0  0  0  0  0
   -0.6208   -3.4167    0.0000 C   0  0  0  0  0  0  0  0  0  0  0  0
   -0.0833   -3.1042    0.0000 C   0  0  0  0  0  0  0  0  0  0  0  0
   -0.6083   -3.9917    0.0000 C   0  0  0  0  0  0  0  0  0  0  0  0
   -1.1083   -3.0750    0.0000 O   0  0  0  0  0  0  0  0  0  0  0  0
    5.9917   -3.0667    0.0000 O   0  0  0  0  0  0  0  0  0  0  0  0
    7.5250   -4.5042    0.0000 O   0  0  0  0  0  0  0  0  0  0  0  0
    5.3042   -3.5292    0.0000 C   0  0  0  0  0  0  0  0  0  0  0  0
    7.1500   -4.0667    0.0000 C   0  0  0  0  0  0  0  0  0  0  0  0
    3.0106   -3.6521    0.0000 H   0  0  0  0  0  0  0  0  0  0  0  0
  2  1  1  0
  3  1  1  0
  4  3  1  0
  5 22  1  0
  6  1  1  0
  7 11  1  0
  8  2  1  0
  9  6  1  0
 10  7  1  0
 11 15  1  0
  4 12  1  6
 13 10  1  0
 14 12  1  0
 18 15  1  6
 16  7  2  0
 17 20  2  0
 18 14  1  0
  6 19  1  1
 20 16  1  0
 21  5  1  0
 22 34  1  0
 23  5  2  0
 24  5  2  0
 25  3  2  0
 26 17  1  0
 27 18  1  0
 28 10  2  0
 29 11  2  0
 30 14  2  0
 31 19  1  0
 32 19  2  0
 33 35  1  0
 34 36  2  0
 35 26  2  0
 36 26  1  0
 37 27  1  0
 38 27  2  0
 39 21  1  0
 40 21  1  0
 41  9  1  0
 42  9  1  0
 43 44  2  0
 44 38  1  0
 45 37  2  0
 46 43  1  0
 47 49  1  0
 48 50  1  0
 49 40  1  0
 50 39  1  0
  8  9  1  0
  2  4  1  0
 43 45  1  0
 13 17  1  0
 22 33  2  0
  2 51  1  1
M  END

> <chembl_id>
CHEMBL2110877

> <chembl_pref_name>
PIRIDICILLIN

$$$$

     RDKit          2D

 26 27  0  0  0  0  0  0  0  0999 V2000
   10.3959   -1.9663    0.0000 K   0  0  0  0  0 15  0  0  0  0  0  0
    4.4028    0.2427    0.0000 N   0  0  0  0  0  0  0  0  0  0  0  0
    2.9467    0.5893    0.0000 C   0  0  0  0  0  0  0  0  0  0  0  0
    4.0387   -1.2480    0.0000 C   0  0  0  0  0  0  0  0  0  0  0  0
    2.5654   -0.9014    0.0000 C   0  0  0  0  0  0  0  0  0  0  0  0
    5.1654    1.5080    0.0000 C   0  0  0  0  0  0  0  0  0  0  0  0
    2.8254    2.0454    0.0000 S   0  0  0  0  0  0  0  0  0  0  0  0
    4.1948    2.6347    0.0000 C   0  0  0  0  0  0  0  0  0  0  0  0
    2.6025   -2.3987    0.0000 N   0  0  0  0  0  0  0  0  0  0  0  0
    6.6590    1.6292    0.0000 C   0  0  0  0  0  0  0  0  0  0  0  0
    3.9175   -3.1221    0.0000 C   0  0  0  0  0  0  0  0  0  0  0  0
    4.5615   -2.1005    0.0000 O   0  0  0  0  0  0  0  0  0  0  0  0
    7.1727    2.7136    0.0000 O   0  0  0  0  0  0  0  0  0  0  0  0
    7.3417    0.6422    0.0000 O   0  0  0  0  0  0  0  0  0  0  0  0
    4.7728   -2.6041    0.0000 O   0  0  0  0  0  0  0  0  0  0  0  0
    3.9494   -4.6226    0.0000 C   0  0  0  0  0  0  0  0  0  0  0  0
    5.3472    2.9691    0.0000 C   0  0  0  0  0  0  0  0  0  0  0  0
    3.3052    3.4401    0.0000 C   0  0  0  0  0  0  0  0  0  0  0  0
    5.2644   -5.3460    0.0000 C   0  0  0  0  0  0  0  0  0  0  0  0
    5.2985   -6.8457    0.0000 C   0  0  0  0  0  0  0  0  0  0  0  0
    6.5462   -4.5668    0.0000 C   0  0  0  0  0  0  0  0  0  0  0  0
    7.8619   -5.2871    0.0000 C   0  0  0  0  0  0  0  0  0  0  0  0
    6.6142   -7.5660    0.0000 C   0  0  0  0  0  0  0  0  0  0  0  0
    7.8959   -6.7867    0.0000 C   0  0  0  0  0  0  0  0  0  0  0  0
    1.6908   -0.4166    0.0000 H   0  0  0  0  0  0  0  0  0  0  0  0
    1.9502    0.6729    0.0000 H   0  0  0  0  0  0  0  0  0  0  0  0
  3  2  1  0
  4  2  1  0
  5  4  1  0
  6  2  1  0
  7  3  1  0
  8  6  1  0
  5  9  1  1
  6 10  1  6
 11  9  1  0
 12  4  2  0
 13 10  1  0
 14 10  2  0
 15 11  2  0
 16 11  1  0
 17  8  1  0
 18  8  1  0
 19 16  1  0
 20 19  1  0
 21 19  2  0
 22 21  1  0
 23 20  2  0
 24 23  1  0
  5 25  1  6
  3 26  1  6
  8  7  1  0
  5  3  1  0
 22 24  2  0
M  CHG  2   1   1  13  -1
M  END

> <chembl_id>
CHEMBL1223

> <chembl_pref_name>
PENICILLIN G POTASSIUM

$$$$

     RDKit          2D

 20 22  0  0  1  0  0  0  0  0999 V2000
    1.9413   -0.8879    0.0000 C   0  0  0  0  0  0  0  0  0  0  0  0
    0.7500   -1.0323    0.0000 C   0  0  0  0  0  0  0  0  0  0  0  0
    0.1233   -2.3813    0.0000 C   0  0  0  0  0  0  0  0  0  0  0  0
   -1.3692   -2.5388    0.0000 N   0  0  0  0  0  0  0  0  0  0  0  0
   -2.1139   -3.8253    0.0000 C   0  0  0  0  0  0  0  0  0  0  0  0
   -3.5769   -3.4942    0.0000 C   0  0  0  0  0  0  0  0  0  0  0  0
   -3.7141   -2.0005    0.0000 N   0  0  0  0  0  0  0  0  0  0  0  0
   -2.3359   -1.4084    0.0000 N   0  0  0  0  0  0  0  0  0  0  0  0
    1.2135    0.3943    0.0000 C   0  0  0  0  0  0  0  0  0  0  0  0
    0.0000    1.2760    0.0000 N   0  0  0  0  0  0  0  0  0  0  0  0
   -1.2135    0.3943    0.0000 C   0  0  0  0  0  0  0  0  0  0  0  0
   -2.0931    1.6049    0.0000 C   0  0  0  0  0  0  0  0  0  0  0  0
   -0.8796    2.4866    0.0000 C   0  0  0  0  0  0  0  0  0  0  0  0
   -0.6918    3.6718    0.0000 O   0  0  0  0  0  0  0  0  0  0  0  0
   -0.7500   -1.0323    0.0000 S   0  0  0  0  0  0  0  0  0  0  0  0
   -0.2455   -2.1211    0.0000 O   0  0  0  0  0  0  0  0  0  0  0  0
   -1.9414   -0.8892    0.0000 O   0  0  0  0  0  0  0  0  0  0  0  0
    2.6394    0.8543    0.0000 C   0  0  0  0  0  0  0  0  0  0  0  0
    3.5300    0.0501    0.0000 O   0  0  0  0  0  0  0  0  0  0  0  0
    2.8910    2.0277    0.0000 O   0  0  0  0  0  0  0  0  0  0  0  0
  2  1  1  1
  2  3  1  0
  3  4  1  0
  4  5  1  0
  5  6  2  0
  6  7  1  0
  7  8  2  0
  8  4  1  0
  2  9  1  0
  9 10  1  0
 10 11  1  0
 11 12  1  6
 12 13  1  0
 13 10  1  0
 13 14  2  0
 11 15  1  0
 15  2  1  0
 15 16  2  0
 15 17  2  0
  9 18  1  1
 18 19  2  0
 18 20  1  0
M  END

> <chembl_id>
CHEMBL404

> <chembl_pref_name>
TAZOBACTAM

$$$$

     RDKit          2D

 27 28  0  0  0  0  0  0  0  0999 V2000
    7.5792   -3.0625    0.0000 Na  0  0  0  0  0 15  0  0  0  0  0  0
    4.2917   -2.9917    0.0000 N   0  0  0  0  0  0  0  0  0  0  0  0
    4.2917   -2.3125    0.0000 C   0  0  0  0  0  0  0  0  0  0  0  0
    3.6042   -2.9917    0.0000 C   0  0  0  0  0  0  0  0  0  0  0  0
    3.6042   -2.3125    0.0000 C   0  0  0  0  0  0  0  0  0  0  0  0
    5.4750   -2.9917    0.0000 C   0  0  0  0  0  0  0  0  0  0  0  0
    4.8792   -1.9625    0.0000 S   0  0  0  0  0  0  0  0  0  0  0  0
    5.4750   -2.3125    0.0000 C   0  0  0  0  0  0  0  0  0  0  0  0
    3.0167   -1.9667    0.0000 N   0  0  0  0  0  0  0  0  0  0  0  0
    2.4292   -2.3125    0.0000 C   0  0  0  0  0  0  0  0  0  0  0  0
    6.0375   -3.4250    0.0000 C   0  0  0  0  0  0  0  0  0  0  0  0
    1.8375   -1.9667    0.0000 C   0  0  0  0  0  0  0  0  0  0  0  0
    3.1167   -3.4792    0.0000 O   0  0  0  0  0  0  0  0  0  0  0  0
    2.4250   -2.9917    0.0000 O   0  0  0  0  0  0  0  0  0  0  0  0
    1.2417   -2.3125    0.0000 C   0  0  0  0  0  0  0  0  0  0  0  0
    6.7042   -3.0875    0.0000 O   0  0  0  0  0  0  0  0  0  0  0  0
    6.0375   -4.1250    0.0000 O   0  0  0  0  0  0  0  0  0  0  0  0
    0.6417   -1.9667    0.0000 C   0  0  0  0  0  0  0  0  0  0  0  0
    1.2417   -2.9917    0.0000 C   0  0  0  0  0  0  0  0  0  0  0  0
    1.8292   -1.2875    0.0000 N   0  0  0  0  0  0  0  0  0  0  0  0
    6.2667   -2.3125    0.0000 C   0  0  0  0  0  0  0  0  0  0  0  0
    5.4667   -1.6250    0.0000 C   0  0  0  0  0  0  0  0  0  0  0  0
    0.0542   -2.9917    0.0000 C   0  0  0  0  0  0  0  0  0  0  0  0
    0.0542   -2.3125    0.0000 C   0  0  0  0  0  0  0  0  0  0  0  0
    0.6417   -3.3375    0.0000 C   0  0  0  0  0  0  0  0  0  0  0  0
   -0.5375   -3.3375    0.0000 O   0  0  0  0  0  0  0  0  0  0  0  0
    4.2875   -1.6250    0.0000 H   0  0  0  0  0  0  0  0  0  0  0  0
  3  2  1  0
  4  2  1  0
  5  4  1  0
  6  2  1  0
  7  3  1  0
  8  6  1  0
  5  9  1  1
 10  9  1  0
  6 11  1  6
 12 10  1  0
 13  4  2  0
 14 10  2  0
 15 12  1  0
 16 11  1  0
 17 11  2  0
 18 15  2  0
 19 15  1  0
 12 20  1  1
 21  8  1  0
 22  8  1  0
 23 25  1  0
 24 18  1  0
 25 19  2  0
 26 23  1  0
  3 27  1  6
  7  8  1  0
  5  3  1  0
 23 24  2  0
M  CHG  2   1   1  16  -1
M  END

> <chembl_id>
CHEMBL2105950

> <chembl_pref_name>
AMOXICILLIN SODIUM

$$$$

     RDKit          2D

 24 26  0  0  0  0  0  0  0  0999 V2000
    5.6375   -5.2792    0.0000 N   0  0  0  0  0  0  0  0  0  0  0  0
    5.6375   -4.5750    0.0000 C   0  0  0  0  0  0  0  0  0  0  0  0
    4.9167   -5.2792    0.0000 C   0  0  0  0  0  0  0  0  0  0  0  0
    4.9167   -4.5750    0.0000 C   0  0  0  0  0  0  0  0  0  0  0  0
    6.3167   -5.5042    0.0000 C   0  0  0  0  0  0  0  0  0  0  0  0
    6.3167   -4.3542    0.0000 S   0  0  0  0  0  0  0  0  0  0  0  0
    6.7375   -4.9125    0.0000 C   0  0  0  0  0  0  0  0  0  0  0  0
    4.3042   -4.2167    0.0000 N   0  0  0  0  0  0  0  0  0  0  0  0
    3.6917   -4.5750    0.0000 C   0  0  0  0  0  0  0  0  0  0  0  0
    6.3292   -6.2042    0.0000 C   0  0  0  0  0  0  0  0  0  0  0  0
    3.0750   -4.2167    0.0000 C   0  0  0  0  0  0  0  0  0  0  0  0
    4.4292   -5.7917    0.0000 O   0  0  0  0  0  0  0  0  0  0  0  0
    3.6917   -5.2792    0.0000 O   0  0  0  0  0  0  0  0  0  0  0  0
    5.7292   -6.5750    0.0000 O   0  0  0  0  0  0  0  0  0  0  0  0
    3.0875   -4.9375    0.0000 N   0  0  0  0  0  0  0  0  0  0  0  0
    6.9542   -6.5500    0.0000 O   0  0  0  0  0  0  0  0  0  0  0  0
    7.3500   -5.2792    0.0000 C   0  0  0  0  0  0  0  0  0  0  0  0
    7.3125   -4.4917    0.0000 C   0  0  0  0  0  0  0  0  0  0  0  0
    3.4125   -3.5917    0.0000 C   0  0  0  0  0  0  0  0  0  0  0  0
    2.3667   -4.2292    0.0000 C   0  0  0  0  0  0  0  0  0  0  0  0
    1.9917   -3.6250    0.0000 C   0  0  0  0  0  0  0  0  0  0  0  0
    3.0417   -2.9875    0.0000 C   0  0  0  0  0  0  0  0  0  0  0  0
    2.3375   -3.0042    0.0000 C   0  0  0  0  0  0  0  0  0  0  0  0
    5.6417   -3.8667    0.0000 H   0  0  0  0  0  0  0  0  0  0  0  0
  2  1  1  0
  3  1  1  0
  4  3  1  0
  5  1  1  0
  6  2  1  0
  7  5  1  0
  4  8  1  1
  9  8  1  0
  5 10  1  6
 11  9  1  0
 12  3  2  0
 13  9  2  0
 14 10  2  0
 15 11  1  0
 16 10  1  0
 17  7  1  0
 18  7  1  0
 19 11  1  0
 20 11  1  0
 21 20  1  0
 22 19  1  0
 23 21  1  0
  2 24  1  6
  7  6  1  0
  4  2  1  0
 23 22  1  0
M  END

> <chembl_id>
CHEMBL1200356

> <chembl_pref_name>
CYCLACILLIN

$$$$

     RDKit          2D

 34 36  0  0  0  0  0  0  0  0999 V2000
    5.6167  -10.9125    0.0000 Na  0  0  0  0  0 15  0  0  0  0  0  0
    3.5500   -9.6458    0.0000 N   0  0  0  0  0  0  0  0  0  0  0  0
    3.5500   -8.9375    0.0000 C   0  0  0  0  0  0  0  0  0  0  0  0
    2.8375   -9.6500    0.0000 C   0  0  0  0  0  0  0  0  0  0  0  0
    2.8375   -8.9375    0.0000 C   0  0  0  0  0  0  0  0  0  0  0  0
   -0.8500   -8.9375    0.0000 N   0  0  0  0  0  0  0  0  0  0  0  0
    4.2250   -9.8625    0.0000 C   0  0  0  0  0  0  0  0  0  0  0  0
    4.2208   -8.7167    0.0000 S   0  0  0  0  0  0  0  0  0  0  0  0
   -0.2333   -8.5833    0.0000 C   0  0  0  0  0  0  0  0  0  0  0  0
    4.6417   -9.2875    0.0000 C   0  0  0  0  0  0  0  0  0  0  0  0
    2.2167   -8.5792    0.0000 N   0  0  0  0  0  0  0  0  0  0  0  0
   -1.4208   -8.5167    0.0000 C   0  0  0  0  0  0  0  0  0  0  0  0
    1.6042   -8.9375    0.0000 C   0  0  0  0  0  0  0  0  0  0  0  0
    0.3792   -8.9375    0.0000 N   0  0  0  0  0  0  0  0  0  0  0  0
    0.9917   -8.5833    0.0000 C   0  0  0  0  0  0  0  0  0  0  0  0
    4.2167  -10.5667    0.0000 C   0  0  0  0  0  0  0  0  0  0  0  0
   -1.9958   -8.9375    0.0000 N   0  0  0  0  0  0  0  0  0  0  0  0
    2.3375  -10.1500    0.0000 O   0  0  0  0  0  0  0  0  0  0  0  0
   -0.2333   -7.8750    0.0000 O   0  0  0  0  0  0  0  0  0  0  0  0
   -1.4208   -7.8083    0.0000 O   0  0  0  0  0  0  0  0  0  0  0  0
    1.6042   -9.6458    0.0000 O   0  0  0  0  0  0  0  0  0  0  0  0
    4.8292  -10.9292    0.0000 O   0  0  0  0  0  0  0  0  0  0  0  0
    3.6000  -10.9167    0.0000 O   0  0  0  0  0  0  0  0  0  0  0  0
    0.9917   -7.8750    0.0000 C   0  0  0  0  0  0  0  0  0  0  0  0
   -1.0667   -9.6083    0.0000 C   0  0  0  0  0  0  0  0  0  0  0  0
   -1.7750   -9.6083    0.0000 C   0  0  0  0  0  0  0  0  0  0  0  0
    5.2542   -9.6417    0.0000 C   0  0  0  0  0  0  0  0  0  0  0  0
    5.2542   -8.9292    0.0000 C   0  0  0  0  0  0  0  0  0  0  0  0
    1.6083   -7.5208    0.0000 C   0  0  0  0  0  0  0  0  0  0  0  0
    0.3833   -7.5250    0.0000 C   0  0  0  0  0  0  0  0  0  0  0  0
    0.3792   -6.8167    0.0000 C   0  0  0  0  0  0  0  0  0  0  0  0
    1.6083   -6.8125    0.0000 C   0  0  0  0  0  0  0  0  0  0  0  0
    0.9958   -6.4583    0.0000 C   0  0  0  0  0  0  0  0  0  0  0  0
    3.5417   -8.2292    0.0000 H   0  0  0  0  0  0  0  0  0  0  0  0
  3  2  1  0
  4  2  1  0
  5  3  1  0
  6  9  1  0
  7  2  1  0
  8  3  1  0
  9 14  1  0
 10  7  1  0
  5 11  1  1
 12  6  1  0
 13 11  1  0
 14 15  1  0
 15 13  1  0
  7 16  1  6
 17 12  1  0
 18  4  2  0
 19  9  2  0
 20 12  2  0
 21 13  2  0
 22 16  1  0
 23 16  2  0
 15 24  1  6
 25  6  1  0
 26 25  1  0
 27 10  1  0
 28 10  1  0
 29 24  2  0
 30 24  1  0
 31 30  2  0
 32 29  1  0
 33 31  1  0
  3 34  1  6
  8 10  1  0
  4  5  1  0
 33 32  2  0
 26 17  1  0
M  CHG  2   1   1  22  -1
M  END

> <chembl_id>
CHEMBL1201041

> <chembl_pref_name>
AZLOCILLIN SODIUM

$$$$

     RDKit          2D

 23 25  0  0  0  0  0  0  0  0999 V2000
    4.8190    0.8795    0.0000 N   0  0  0  0  0  0  0  0  0  0  0  0
    4.8190    1.7041    0.0000 C   0  0  0  0  0  0  0  0  0  0  0  0
    3.9944    0.8795    0.0000 C   0  0  0  0  0  0  0  0  0  0  0  0
    3.9944    1.7041    0.0000 C   0  0  0  0  0  0  0  0  0  0  0  0
    5.6023    0.6184    0.0000 C   0  0  0  0  0  0  0  0  0  0  0  0
    5.6023    1.9560    0.0000 S   0  0  0  0  0  0  0  0  0  0  0  0
    6.0833    1.2918    0.0000 C   0  0  0  0  0  0  0  0  0  0  0  0
    3.2753    2.1163    0.0000 N   0  0  0  0  0  0  0  0  0  0  0  0
    6.0145   -0.0916    0.0000 C   0  0  0  0  0  0  0  0  0  0  0  0
    2.5607    1.7041    0.0000 C   0  0  0  0  0  0  0  0  0  0  0  0
    1.8369    2.1163    0.0000 N   0  0  0  0  0  0  0  0  0  0  0  0
    3.2753    0.4672    0.0000 O   0  0  0  0  0  0  0  0  0  0  0  0
    5.5978   -0.8062    0.0000 O   0  0  0  0  0  0  0  0  0  0  0  0
    6.8391   -0.0916    0.0000 O   0  0  0  0  0  0  0  0  0  0  0  0
    6.7979    1.7041    0.0000 C   0  0  0  0  0  0  0  0  0  0  0  0
    6.7979    0.8795    0.0000 C   0  0  0  0  0  0  0  0  0  0  0  0
    1.8461    2.9409    0.0000 C   0  0  0  0  0  0  0  0  0  0  0  0
    1.1910    1.5987    0.0000 C   0  0  0  0  0  0  0  0  0  0  0  0
    1.2002    3.4631    0.0000 C   0  0  0  0  0  0  0  0  0  0  0  0
    0.3802    1.7911    0.0000 C   0  0  0  0  0  0  0  0  0  0  0  0
    0.0229    2.5332    0.0000 C   0  0  0  0  0  0  0  0  0  0  0  0
    0.3894    3.2844    0.0000 C   0  0  0  0  0  0  0  0  0  0  0  0
    4.8782    2.5265    0.0000 H   0  0  0  0  0  0  0  0  0  0  0  0
  2  1  1  0
  3  1  1  0
  4  3  1  0
  5  1  1  0
  2  6  1  0
  7  5  1  0
  4  8  1  1
  5  9  1  6
 10  8  2  0
 11 10  1  0
 12  3  2  0
 13  9  2  0
 14  9  1  0
 15  7  1  0
 16  7  1  0
 17 11  1  0
 18 11  1  0
 19 17  1  0
 20 18  1  0
 21 20  1  0
 22 19  1  0
  7  6  1  0
  2  4  1  0
 21 22  1  0
  2 23  1  6
M  END

> <chembl_id>
CHEMBL530

> <chembl_pref_name>
AMDINOCILLIN

$$$$

     RDKit          2D

 34 35  0  0  0  0  0  0  0  0999 V2000
    0.0292   -7.0292    0.0000 Cl  0  0  0  0  0  0  0  0  0  0  0  0
    2.7708   -5.8958    0.0000 N   0  0  0  0  0  0  0  0  0  0  0  0
    2.7667   -5.1875    0.0000 C   0  0  0  0  0  0  0  0  0  0  0  0
    2.0625   -5.9000    0.0000 C   0  0  0  0  0  0  0  0  0  0  0  0
    2.0625   -5.1875    0.0000 C   0  0  0  0  0  0  0  0  0  0  0  0
    3.4458   -6.1125    0.0000 C   0  0  0  0  0  0  0  0  0  0  0  0
    3.4417   -4.9667    0.0000 S   0  0  0  0  0  0  0  0  0  0  0  0
    3.8625   -5.5375    0.0000 C   0  0  0  0  0  0  0  0  0  0  0  0
    3.4417   -6.8167    0.0000 C   0  0  0  0  0  0  0  0  0  0  0  0
    1.4417   -4.8292    0.0000 N   0  0  0  0  0  0  0  0  0  0  0  0
    0.8250   -5.1875    0.0000 C   0  0  0  0  0  0  0  0  0  0  0  0
    4.0500   -7.1792    0.0000 O   0  0  0  0  0  0  0  0  0  0  0  0
    5.2750   -7.1917    0.0000 O   0  0  0  0  0  0  0  0  0  0  0  0
    5.8917   -6.8458    0.0000 C   0  0  0  0  0  0  0  0  0  0  0  0
    0.2125   -4.8333    0.0000 C   0  0  0  0  0  0  0  0  0  0  0  0
    4.6667   -6.8333    0.0000 C   0  0  0  0  0  0  0  0  0  0  0  0
    1.5583   -6.4000    0.0000 O   0  0  0  0  0  0  0  0  0  0  0  0
    2.8208   -7.1667    0.0000 O   0  0  0  0  0  0  0  0  0  0  0  0
    0.8250   -5.8958    0.0000 O   0  0  0  0  0  0  0  0  0  0  0  0
    5.9000   -6.1375    0.0000 O   0  0  0  0  0  0  0  0  0  0  0  0
   -0.4000   -5.1875    0.0000 C   0  0  0  0  0  0  0  0  0  0  0  0
    0.2125   -4.1250    0.0000 N   0  0  0  0  0  0  0  0  0  0  0  0
    6.5042   -7.2083    0.0000 O   0  0  0  0  0  0  0  0  0  0  0  0
    4.4750   -5.8917    0.0000 C   0  0  0  0  0  0  0  0  0  0  0  0
    4.4750   -5.1792    0.0000 C   0  0  0  0  0  0  0  0  0  0  0  0
    4.6750   -6.1250    0.0000 C   0  0  0  0  0  0  0  0  0  0  0  0
   -0.4000   -5.8875    0.0000 C   0  0  0  0  0  0  0  0  0  0  0  0
   -1.0125   -4.8292    0.0000 C   0  0  0  0  0  0  0  0  0  0  0  0
    7.1208   -6.8583    0.0000 C   0  0  0  0  0  0  0  0  0  0  0  0
    7.7292   -7.2208    0.0000 C   0  0  0  0  0  0  0  0  0  0  0  0
   -1.6250   -5.1833    0.0000 C   0  0  0  0  0  0  0  0  0  0  0  0
   -1.0083   -6.2458    0.0000 C   0  0  0  0  0  0  0  0  0  0  0  0
   -1.6250   -5.8917    0.0000 C   0  0  0  0  0  0  0  0  0  0  0  0
    2.7625   -4.4792    0.0000 H   0  0  0  0  0  0  0  0  0  0  0  0
  3  2  1  0
  4  2  1  0
  5  4  1  0
  6  2  1  0
  7  3  1  0
  8  6  1  0
  6  9  1  6
  5 10  1  1
 11 10  1  0
 12  9  1  0
 13 16  1  0
 14 13  1  0
 15 11  1  0
 16 12  1  0
 17  4  2  0
 18  9  2  0
 19 11  2  0
 20 14  2  0
 21 15  1  0
 15 22  1  1
 23 14  1  0
 24  8  1  0
 25  8  1  0
 26 16  1  0
 27 21  1  0
 28 21  2  0
 29 23  1  0
 30 29  1  0
 31 28  1  0
 32 27  2  0
 33 32  1  0
  3 34  1  6
  7  8  1  0
  5  3  1  0
 33 31  2  0
M  END

> <chembl_id>
CHEMBL1200965

> <chembl_pref_name>
BACAMPICILLIN HYDROCHLORIDE

$$$$

     RDKit          2D

 27 29  0  0  0  0  0  0  0  0999 V2000
    7.9986  -21.8916    0.0000 C   0  0  0  0  0  0  0  0  0  0  0  0
    7.9974  -22.7190    0.0000 C   0  0  0  0  0  0  0  0  0  0  0  0
    8.7122  -23.1319    0.0000 C   0  0  0  0  0  0  0  0  0  0  0  0
    9.4287  -22.7185    0.0000 C   0  0  0  0  0  0  0  0  0  0  0  0
    9.4258  -21.8880    0.0000 C   0  0  0  0  0  0  0  0  0  0  0  0
    8.7104  -21.4789    0.0000 C   0  0  0  0  0  0  0  0  0  0  0  0
   10.1387  -21.4728    0.0000 C   0  0  0  0  0  0  0  0  0  0  0  0
   10.8547  -21.8826    0.0000 C   0  0  0  0  0  0  0  0  0  0  0  0
   11.5677  -21.4674    0.0000 N   0  0  0  0  0  0  0  0  0  0  0  0
   10.8579  -22.7076    0.0000 O   0  0  0  0  0  0  0  0  0  0  0  0
   12.2837  -21.8772    0.0000 C   0  0  0  0  0  0  0  0  0  0  0  0
   12.4992  -22.6710    0.0000 C   0  0  0  0  0  0  0  0  0  0  0  0
   12.0892  -23.3869    0.0000 O   0  0  0  0  0  0  0  0  0  0  0  0
   13.0787  -21.6584    0.0000 C   0  0  0  0  0  0  0  0  0  0  0  0
   13.2945  -22.4506    0.0000 N   0  0  0  0  0  0  0  0  0  0  0  0
   14.1146  -22.4902    0.0000 C   0  0  0  0  0  0  0  0  0  0  0  0
   14.4057  -21.7224    0.0000 C   0  0  0  0  0  0  0  0  0  0  0  0
   13.7655  -21.2084    0.0000 S   0  0  0  0  0  0  0  0  0  0  0  0
   10.1355  -20.6459    0.0000 C   0  0  0  0  0  0  0  0  0  0  0  0
   10.8484  -20.2307    0.0000 O   0  0  0  0  0  0  0  0  0  0  0  0
    9.4194  -20.2361    0.0000 O   0  0  0  0  0  0  0  0  0  0  0  0
   14.8125  -21.0042    0.0000 C   0  0  0  0  0  0  0  0  0  0  0  0
   15.1167  -22.1333    0.0000 C   0  0  0  0  0  0  0  0  0  0  0  0
   14.5695  -23.1810    0.0000 C   0  0  0  0  0  0  0  0  0  0  0  0
   14.1980  -23.9176    0.0000 O   0  0  0  0  0  0  0  0  0  0  0  0
   15.3932  -23.1344    0.0000 O   0  0  0  0  0  0  0  0  0  0  0  0
   12.8583  -20.8583    0.0000 H   0  0  0  0  0  0  0  0  0  0  0  0
  6  1  1  0
 12 13  2  0
 14 15  1  0
  1  2  2  0
  5  7  1  0
  3  4  2  0
  7  8  1  0
 15 16  1  0
 16 17  1  0
 17 18  1  0
 18 14  1  0
  8  9  1  0
  4  5  1  0
  8 10  2  0
 19 20  1  0
 19 21  2  0
  7 19  1  0
  2  3  1  0
 17 22  1  0
 11  9  1  1
 17 23  1  0
 11 12  1  0
  5  6  2  0
 12 15  1  0
 24 25  1  0
 24 26  2  0
 16 24  1  6
 14 11  1  0
 14 27  1  6
M  END

> <chembl_id>
CHEMBL1214

> <chembl_pref_name>
CARBENICILLIN

$$$$

     RDKit          2D

 27 29  0  0  0  0  0  0  0  0999 V2000
    2.8552   -0.6517    0.0000 O   0  0  0  0  0  0  0  0  0  0  0  0
    1.6852   -0.3846    0.0000 C   0  0  0  0  0  0  0  0  0  0  0  0
    1.3514    1.0778    0.0000 C   0  0  0  0  0  0  0  0  0  0  0  0
    0.0000    1.7286    0.0000 N   0  0  0  0  0  0  0  0  0  0  0  0
   -1.3515    1.0777    0.0000 C   0  0  0  0  0  0  0  0  0  0  0  0
   -2.2897    1.8259    0.0000 O   0  0  0  0  0  0  0  0  0  0  0  0
   -1.6852   -0.3847    0.0000 C   0  0  0  0  0  0  0  0  0  0  0  0
   -3.1497   -0.7220    0.0000 C   0  0  0  0  0  0  0  0  0  0  0  0
   -3.5900   -2.1568    0.0000 C   0  0  0  0  0  0  0  0  0  0  0  0
   -5.0512   -2.4957    0.0000 C   0  0  0  0  0  0  0  0  0  0  0  0
   -5.4884   -3.9306    0.0000 C   0  0  0  0  0  0  0  0  0  0  0  0
   -4.4644   -5.0267    0.0000 C   0  0  0  0  0  0  0  0  0  0  0  0
   -3.0032   -4.6878    0.0000 C   0  0  0  0  0  0  0  0  0  0  0  0
   -2.5660   -3.2530    0.0000 C   0  0  0  0  0  0  0  0  0  0  0  0
   -0.7500   -1.5574    0.0000 C   0  0  0  0  0  0  0  0  0  0  0  0
    0.7500   -1.5574    0.0000 N   0  0  0  0  0  0  0  0  0  0  0  0
    0.0000    3.2313    0.0000 S   0  0  0  0  0  0  0  0  0  0  0  0
   -1.0394    3.8310    0.0000 O   0  0  0  0  0  0  0  0  0  0  0  0
   -1.0391    2.6312    0.0000 O   0  0  0  0  0  0  0  0  0  0  0  0
    1.2993    3.9826    0.0000 C   0  0  0  0  0  0  0  0  0  0  0  0
    2.5988    3.2334    0.0000 C   0  0  0  0  0  0  0  0  0  0  0  0
    3.8973    3.9843    0.0000 C   0  0  0  0  0  0  0  0  0  0  0  0
    3.8964    5.4843    0.0000 C   0  0  0  0  0  0  0  0  0  0  0  0
    2.5969    6.2334    0.0000 C   0  0  0  0  0  0  0  0  0  0  0  0
    1.2983    5.4826    0.0000 C   0  0  0  0  0  0  0  0  0  0  0  0
    5.1956    6.2355    0.0000 C   0  0  0  0  0  0  0  0  0  0  0  0
    6.2345    6.8362    0.0000 N   0  0  0  0  0  0  0  0  0  0  0  0
  1  2  2  0
  2  3  1  0
  3  4  1  0
  4  5  1  0
  5  6  2  0
  5  7  1  0
  7  8  2  0
  8  9  1  0
  9 10  2  0
 10 11  1  0
 11 12  2  0
 12 13  1  0
 13 14  2  0
 14  9  1  0
  7 15  1  0
 15 16  1  0
 16  2  1  0
  4 17  1  0
 17 18  2  0
 17 19  2  0
 17 20  1  0
 20 21  2  0
 21 22  1  0
 22 23  2  0
 23 24  1  0
 24 25  2  0
 25 20  1  0
 23 26  1  0
 26 27  3  0
M  END

> <chembl_id>
CHEMBL3651448

> <chembl_pref_name>
None

$$$$

     RDKit          2D

 95102  0  0  0  0  0  0  0  0999 V2000
  -15.1919   -3.9639    0.0000 N   0  0  0  0  0  0  0  0  0  0  0  0
  -15.1919   -3.1369    0.0000 C   0  0  0  0  0  0  0  0  0  0  0  0
  -16.0188   -3.9639    0.0000 C   0  0  0  0  0  0  0  0  0  0  0  0
  -16.0188   -3.1369    0.0000 C   0  0  0  0  0  0  0  0  0  0  0  0
  -14.4108   -4.2145    0.0000 C   0  0  0  0  0  0  0  0  0  0  0  0
  -14.4108   -2.8822    0.0000 S   0  0  0  0  0  0  0  0  0  0  0  0
  -13.9263   -3.5462    0.0000 C   0  0  0  0  0  0  0  0  0  0  0  0
  -16.6035   -2.5564    0.0000 N   0  0  0  0  0  0  0  0  0  0  0  0
  -17.4053   -2.7694    0.0000 C   0  0  0  0  0  0  0  0  0  0  0  0
  -14.1520   -5.0039    0.0000 C   0  0  0  0  0  0  0  0  0  0  0  0
  -14.7659   -7.7854    0.0000 C   0  0  0  0  0  0  0  0  0  0  0  0
  -17.9859   -2.1805    0.0000 C   0  0  0  0  0  0  0  0  0  0  0  0
  -16.6035   -4.5402    0.0000 O   0  0  0  0  0  0  0  0  0  0  0  0
  -15.3297   -8.3951    0.0000 C   0  0  0  0  0  0  0  0  0  0  0  0
  -17.6183   -3.5505    0.0000 O   0  0  0  0  0  0  0  0  0  0  0  0
  -14.7115   -5.6178    0.0000 O   0  0  0  0  0  0  0  0  0  0  0  0
  -15.0164   -7.0085    0.0000 O   0  0  0  0  0  0  0  0  0  0  0  0
  -14.4610   -6.4029    0.0000 C   0  0  0  0  0  0  0  0  0  0  0  0
  -13.3501   -5.1792    0.0000 O   0  0  0  0  0  0  0  0  0  0  0  0
  -13.9640   -7.9733    0.0000 O   0  0  0  0  0  0  0  0  0  0  0  0
  -18.7878   -2.3852    0.0000 C   0  0  0  0  0  0  0  0  0  0  0  0
  -17.7729   -1.3953    0.0000 N   0  0  0  0  0  0  0  0  0  0  0  0
  -13.2832   -4.0642    0.0000 C   0  0  0  0  0  0  0  0  0  0  0  0
  -13.4378   -2.8739    0.0000 C   0  0  0  0  0  0  0  0  0  0  0  0
  -15.8893   -9.0008    0.0000 C   0  0  0  0  0  0  0  0  0  0  0  0
  -14.7240   -8.9506    0.0000 C   0  0  0  0  0  0  0  0  0  0  0  0
  -15.9311   -7.8356    0.0000 C   0  0  0  0  0  0  0  0  0  0  0  0
  -19.3725   -1.8088    0.0000 C   0  0  0  0  0  0  0  0  0  0  0  0
  -19.0091   -3.1871    0.0000 C   0  0  0  0  0  0  0  0  0  0  0  0
  -19.8027   -3.4001    0.0000 C   0  0  0  0  0  0  0  0  0  0  0  0
  -20.1618   -2.0177    0.0000 C   0  0  0  0  0  0  0  0  0  0  0  0
  -20.3874   -2.8112    0.0000 C   0  0  0  0  0  0  0  0  0  0  0  0
  -15.1919   -2.3100    0.0000 H   0  0  0  0  0  0  0  0  0  0  0  0
   -2.3440   -1.3398    0.0000 N   0  0  0  0  0  0  0  0  0  0  0  0
   -2.3440   -0.5129    0.0000 C   0  0  0  0  0  0  0  0  0  0  0  0
   -3.1709   -1.3398    0.0000 C   0  0  0  0  0  0  0  0  0  0  0  0
   -3.1709   -0.5129    0.0000 C   0  0  0  0  0  0  0  0  0  0  0  0
   -1.5629   -1.5905    0.0000 C   0  0  0  0  0  0  0  0  0  0  0  0
   -1.5629   -0.2582    0.0000 S   0  0  0  0  0  0  0  0  0  0  0  0
   -1.0785   -0.9222    0.0000 C   0  0  0  0  0  0  0  0  0  0  0  0
   -3.7556    0.0677    0.0000 N   0  0  0  0  0  0  0  0  0  0  0  0
   -4.5575   -0.1453    0.0000 C   0  0  0  0  0  0  0  0  0  0  0  0
   -1.3041   -2.3798    0.0000 C   0  0  0  0  0  0  0  0  0  0  0  0
   -1.9180   -5.1614    0.0000 C   0  0  0  0  0  0  0  0  0  0  0  0
   -5.1380    0.4435    0.0000 C   0  0  0  0  0  0  0  0  0  0  0  0
   -3.7556   -1.9162    0.0000 O   0  0  0  0  0  0  0  0  0  0  0  0
   -2.4818   -5.7711    0.0000 C   0  0  0  0  0  0  0  0  0  0  0  0
   -4.7705   -0.9264    0.0000 O   0  0  0  0  0  0  0  0  0  0  0  0
   -1.8636   -2.9937    0.0000 O   0  0  0  0  0  0  0  0  0  0  0  0
   -2.1685   -4.3845    0.0000 O   0  0  0  0  0  0  0  0  0  0  0  0
   -1.6131   -3.7789    0.0000 C   0  0  0  0  0  0  0  0  0  0  0  0
   -0.5022   -2.5552    0.0000 O   0  0  0  0  0  0  0  0  0  0  0  0
   -1.1161   -5.3492    0.0000 O   0  0  0  0  0  0  0  0  0  0  0  0
   -5.9399    0.2388    0.0000 C   0  0  0  0  0  0  0  0  0  0  0  0
   -4.9250    1.2287    0.0000 N   0  0  0  0  0  0  0  0  0  0  0  0
   -0.4353   -1.4401    0.0000 C   0  0  0  0  0  0  0  0  0  0  0  0
   -0.5899   -0.2498    0.0000 C   0  0  0  0  0  0  0  0  0  0  0  0
   -3.0414   -6.3767    0.0000 C   0  0  0  0  0  0  0  0  0  0  0  0
   -1.8761   -6.3266    0.0000 C   0  0  0  0  0  0  0  0  0  0  0  0
   -3.0832   -5.2115    0.0000 C   0  0  0  0  0  0  0  0  0  0  0  0
   -6.5246    0.8152    0.0000 C   0  0  0  0  0  0  0  0  0  0  0  0
   -6.1612   -0.5631    0.0000 C   0  0  0  0  0  0  0  0  0  0  0  0
   -6.9548   -0.7761    0.0000 C   0  0  0  0  0  0  0  0  0  0  0  0
   -7.3140    0.6064    0.0000 C   0  0  0  0  0  0  0  0  0  0  0  0
   -7.5395   -0.1872    0.0000 C   0  0  0  0  0  0  0  0  0  0  0  0
   -2.3440    0.3140    0.0000 H   0  0  0  0  0  0  0  0  0  0  0  0
   -7.3434   -6.9237    0.0000 C   0  0  0  0  0  0  0  0  0  0  0  0
   -8.4814   -2.7073    0.0000 C   0  0  0  0  0  0  0  0  0  0  0  0
   -8.4814   -4.1468    0.0000 C   0  0  0  0  0  0  0  0  0  0  0  0
   -8.0632   -5.6836    0.0000 C   0  0  0  0  0  0  0  0  0  0  0  0
   -8.0632   -3.4222    0.0000 C   0  0  0  0  0  0  0  0  0  0  0  0
   -7.3483   -6.0921    0.0000 C   0  0  0  0  0  0  0  0  0  0  0  0
   -8.0729   -4.8666    0.0000 C   0  0  0  0  0  0  0  0  0  0  0  0
   -8.0583   -7.3322    0.0000 C   0  0  0  0  0  0  0  0  0  0  0  0
   -9.3130   -2.7073    0.0000 C   0  0  0  0  0  0  0  0  0  0  0  0
   -6.6286   -7.3322    0.0000 C   0  0  0  0  0  0  0  0  0  0  0  0
   -8.0729   -1.9925    0.0000 C   0  0  0  0  0  0  0  0  0  0  0  0
   -9.3130   -4.1517    0.0000 C   0  0  0  0  0  0  0  0  0  0  0  0
   -8.7732   -6.0921    0.0000 C   0  0  0  0  0  0  0  0  0  0  0  0
   -9.7264   -3.4368    0.0000 C   0  0  0  0  0  0  0  0  0  0  0  0
   -8.7732   -6.9237    0.0000 C   0  0  0  0  0  0  0  0  0  0  0  0
   -6.6286   -8.1492    0.0000 O   0  0  0  0  0  0  0  0  0  0  0  0
   -8.4814   -1.2776    0.0000 O   0  0  0  0  0  0  0  0  0  0  0  0
   -6.6431   -5.6787    0.0000 O   0  0  0  0  0  0  0  0  0  0  0  0
   -7.2413   -3.4319    0.0000 O   0  0  0  0  0  0  0  0  0  0  0  0
   -7.2462   -1.9925    0.0000 O   0  0  0  0  0  0  0  0  0  0  0  0
   -5.9283   -6.9188    0.0000 O   0  0  0  0  0  0  0  0  0  0  0  0
   -9.4784   -5.6933    0.0000 C   0  0  0  0  0  0  0  0  0  0  0  0
   -9.7215   -4.8666    0.0000 C   0  0  0  0  0  0  0  0  0  0  0  0
  -10.5531   -3.4368    0.0000 C   0  0  0  0  0  0  0  0  0  0  0  0
   -9.4784   -7.3418    0.0000 C   0  0  0  0  0  0  0  0  0  0  0  0
  -10.5434   -4.8666    0.0000 C   0  0  0  0  0  0  0  0  0  0  0  0
  -10.1884   -6.0921    0.0000 C   0  0  0  0  0  0  0  0  0  0  0  0
  -10.1884   -6.9237    0.0000 C   0  0  0  0  0  0  0  0  0  0  0  0
  -10.9616   -4.1517    0.0000 C   0  0  0  0  0  0  0  0  0  0  0  0
  2  1  1  0
  3  1  1  0
  4  3  1  0
  5  1  1  0
  6  2  1  0
  7  5  1  0
  4  8  1  1
  9  8  1  0
  5 10  1  6
 11 17  1  0
 12  9  1  0
 13  3  2  0
 14 11  1  0
 15  9  2  0
 16 10  1  0
 17 18  1  0
 18 16  1  0
 19 10  2  0
 20 11  2  0
 21 12  1  0
 12 22  1  1
 23  7  1  0
 24  7  1  0
 25 14  1  0
 26 14  1  0
 27 14  1  0
 28 21  2  0
 29 21  1  0
 30 29  2  0
 31 28  1  0
 32 30  1  0
  2 33  1  6
  6  7  1  0
  2  4  1  0
 31 32  2  0
 35 34  1  0
 36 34  1  0
 37 36  1  0
 38 34  1  0
 39 35  1  0
 40 38  1  0
 37 41  1  1
 42 41  1  0
 38 43  1  6
 44 50  1  0
 45 42  1  0
 46 36  2  0
 47 44  1  0
 48 42  2  0
 49 43  1  0
 50 51  1  0
 51 49  1  0
 52 43  2  0
 53 44  2  0
 54 45  1  0
 45 55  1  1
 56 40  1  0
 57 40  1  0
 58 47  1  0
 59 47  1  0
 60 47  1  0
 61 54  2  0
 62 54  1  0
 63 62  2  0
 64 61  1  0
 65 63  1  0
 35 66  1  6
 39 40  1  0
 35 37  1  0
 64 65  2  0
 68 71  1  0
 69 73  1  0
 70 72  2  0
 71 69  2  0
 72 67  1  0
 73 70  1  0
 74 67  2  0
 75 80  1  0
 76 67  1  0
 77 68  1  0
 78 69  1  0
 79 81  1  0
 80 78  1  0
 81 74  1  0
 82 76  2  0
 83 77  2  0
 84 72  1  0
 85 71  1  0
 86 77  1  0
 87 76  1  0
 88 79  2  0
 89 78  2  0
 90 80  2  0
 91 81  2  0
 92 89  1  0
 93 94  2  0
 94 91  1  0
 95 92  2  0
 79 70  1  0
 88 93  1  0
 75 68  2  0
 95 90  1  0
M  END

> <chembl_id>
CHEMBL3989412

> <chembl_pref_name>
PIVAMPICILLIN PAMOATE

$$$$

     RDKit          2D

 30 31  0  0  0  0  0  0  0  0999 V2000
    8.6417   -6.7417    0.0000 Na  0  0  0  0  0 15  0  0  0  0  0  0
    5.7125   -5.8875    0.0000 N   0  0  0  0  0  0  0  0  0  0  0  0
    5.4125   -6.5417    0.0000 C   0  0  0  0  0  0  0  0  0  0  0  0
    5.0500   -5.5875    0.0000 C   0  0  0  0  0  0  0  0  0  0  0  0
    4.7542   -6.2417    0.0000 C   0  0  0  0  0  0  0  0  0  0  0  0
    6.4292   -5.9667    0.0000 C   0  0  0  0  0  0  0  0  0  0  0  0
    5.9500   -7.0292    0.0000 S   0  0  0  0  0  0  0  0  0  0  0  0
    6.5750   -6.6792    0.0000 C   0  0  0  0  0  0  0  0  0  0  0  0
    3.0792   -3.9042    0.0000 S   0  0  0  0  0  0  0  0  0  0  0  0
    4.0542   -5.7542    0.0000 N   0  0  0  0  0  0  0  0  0  0  0  0
    3.6042   -5.2167    0.0000 C   0  0  0  0  0  0  0  0  0  0  0  0
    2.8792   -5.2542    0.0000 C   0  0  0  0  0  0  0  0  0  0  0  0
    2.7125   -4.5417    0.0000 N   0  0  0  0  0  0  0  0  0  0  0  0
    7.1542   -5.8250    0.0000 C   0  0  0  0  0  0  0  0  0  0  0  0
    4.9750   -5.0000    0.0000 O   0  0  0  0  0  0  0  0  0  0  0  0
    3.6917   -4.1750    0.0000 O   0  0  0  0  0  0  0  0  0  0  0  0
    2.4917   -3.6375    0.0000 O   0  0  0  0  0  0  0  0  0  0  0  0
    3.8625   -4.6542    0.0000 O   0  0  0  0  0  0  0  0  0  0  0  0
    2.5542   -5.9250    0.0000 C   0  0  0  0  0  0  0  0  0  0  0  0
    7.6125   -6.3667    0.0000 O   0  0  0  0  0  0  0  0  0  0  0  0
    7.3875   -5.1542    0.0000 O   0  0  0  0  0  0  0  0  0  0  0  0
    3.3417   -3.3167    0.0000 O   0  0  0  0  0  0  0  0  0  0  0  0
    6.9292   -7.3042    0.0000 C   0  0  0  0  0  0  0  0  0  0  0  0
    7.2917   -6.5917    0.0000 C   0  0  0  0  0  0  0  0  0  0  0  0
    1.8292   -5.9167    0.0000 C   0  0  0  0  0  0  0  0  0  0  0  0
    2.9167   -6.5167    0.0000 C   0  0  0  0  0  0  0  0  0  0  0  0
    2.6250   -7.1417    0.0000 C   0  0  0  0  0  0  0  0  0  0  0  0
    1.4792   -6.5750    0.0000 C   0  0  0  0  0  0  0  0  0  0  0  0
    1.8292   -7.1417    0.0000 C   0  0  0  0  0  0  0  0  0  0  0  0
    4.8627   -7.3770    0.0000 H   0  0  0  0  0  0  0  0  0  0  0  0
  3  2  1  0
  4  2  1  0
  5  4  1  0
  6  2  1  0
  7  3  1  0
  8  6  1  0
  9 13  1  0
  5 10  1  6
 11 10  1  0
 12 11  1  0
 12 13  1  1
  6 14  1  1
 15  4  2  0
 16  9  2  0
 17  9  2  0
 18 11  2  0
 12 19  1  0
 20 14  1  0
 21 14  2  0
 22  9  1  0
 23  8  1  0
 24  8  1  0
 25 19  1  0
 26 19  2  0
 27 26  1  0
 28 25  2  0
 29 28  1  0
  7  8  1  0
  3  5  1  0
 27 29  2  0
  3 30  1  1
M  CHG  2   1   1  20  -1
M  END

> <chembl_id>
CHEMBL2107511

> <chembl_pref_name>
SUNCILLIN SODIUM

$$$$

     RDKit          2D

 31 34  0  0  0  0  0  0  0  0999 V2000
    5.3375   -5.5792    0.0000 N   0  0  0  0  0  0  0  0  0  0  0  0
    5.3375   -4.8750    0.0000 C   0  0  0  0  0  0  0  0  0  0  0  0
    4.6250   -5.5792    0.0000 C   0  0  0  0  0  0  0  0  0  0  0  0
    4.6250   -4.8750    0.0000 C   0  0  0  0  0  0  0  0  0  0  0  0
    2.5792   -3.8417    0.0000 C   0  0  0  0  0  0  0  0  0  0  0  0
    2.7875   -4.5167    0.0000 C   0  0  0  0  0  0  0  0  0  0  0  0
    6.0125   -5.8042    0.0000 C   0  0  0  0  0  0  0  0  0  0  0  0
    6.0125   -4.6542    0.0000 S   0  0  0  0  0  0  0  0  0  0  0  0
    3.4042   -4.8667    0.0000 C   0  0  0  0  0  0  0  0  0  0  0  0
    1.8625   -3.8375    0.0000 N   0  0  0  0  0  0  0  0  0  0  0  0
    6.4292   -5.2375    0.0000 C   0  0  0  0  0  0  0  0  0  0  0  0
    4.0250   -4.5292    0.0000 N   0  0  0  0  0  0  0  0  0  0  0  0
    2.9292   -3.2250    0.0000 C   0  0  0  0  0  0  0  0  0  0  0  0
    1.6500   -4.5083    0.0000 O   0  0  0  0  0  0  0  0  0  0  0  0
    2.2167   -4.9417    0.0000 C   0  0  0  0  0  0  0  0  0  0  0  0
    6.0292   -6.5167    0.0000 C   0  0  0  0  0  0  0  0  0  0  0  0
    4.1417   -6.0917    0.0000 O   0  0  0  0  0  0  0  0  0  0  0  0
    3.6417   -3.2250    0.0000 C   0  0  0  0  0  0  0  0  0  0  0  0
    2.5792   -2.6167    0.0000 C   0  0  0  0  0  0  0  0  0  0  0  0
    3.4000   -5.5750    0.0000 O   0  0  0  0  0  0  0  0  0  0  0  0
    6.6542   -6.8542    0.0000 O   0  0  0  0  0  0  0  0  0  0  0  0
    5.4292   -6.8875    0.0000 O   0  0  0  0  0  0  0  0  0  0  0  0
    4.0000   -3.8417    0.0000 Cl  0  0  0  0  0  0  0  0  0  0  0  0
    1.8667   -2.6042    0.0000 Cl  0  0  0  0  0  0  0  0  0  0  0  0
    6.9542   -4.7542    0.0000 C   0  0  0  0  0  0  0  0  0  0  0  0
    6.9542   -5.7042    0.0000 C   0  0  0  0  0  0  0  0  0  0  0  0
    2.2125   -5.6375    0.0000 C   0  0  0  0  0  0  0  0  0  0  0  0
    3.6375   -2.0042    0.0000 C   0  0  0  0  0  0  0  0  0  0  0  0
    3.9875   -2.6167    0.0000 C   0  0  0  0  0  0  0  0  0  0  0  0
    2.9292   -2.0000    0.0000 C   0  0  0  0  0  0  0  0  0  0  0  0
    5.3292   -4.1667    0.0000 H   0  0  0  0  0  0  0  0  0  0  0  0
  2  1  1  0
  3  1  1  0
  4  3  1  0
  5  6  1  0
  6  9  1  0
  7  1  1  0
  8  2  1  0
  9 12  1  0
 10  5  2  0
 11  7  1  0
  4 12  1  1
 13  5  1  0
 14 15  1  0
 15  6  2  0
  7 16  1  6
 17  3  2  0
 18 13  2  0
 19 13  1  0
 20  9  2  0
 21 16  1  0
 22 16  2  0
 23 18  1  0
 24 19  1  0
 25 11  1  0
 26 11  1  0
 27 15  1  0
 28 30  1  0
 29 18  1  0
 30 19  2  0
  2 31  1  6
 11  8  1  0
  4  2  1  0
 14 10  1  0
 28 29  2  0
M  END

> <chembl_id>
CHEMBL893

> <chembl_pref_name>
DICLOXACILLIN

$$$$

     RDKit          2D

 31 33  0  0  0  0  0  0  0  0999 V2000
   -1.2893   -3.8913    0.0000 C   0  0  0  0  0  0  0  0  0  0  0  0
   -1.2893   -4.7163    0.0000 C   0  0  0  0  0  0  0  0  0  0  0  0
   -0.4643   -3.8913    0.0000 C   0  0  0  0  0  0  0  0  0  0  0  0
   -0.4598   -4.7163    0.0000 N   0  0  0  0  0  0  0  0  0  0  0  0
    0.3262   -4.9670    0.0000 C   0  0  0  0  0  0  0  0  0  0  0  0
    0.8075   -4.2969    0.0000 C   0  0  0  0  0  0  0  0  0  0  0  0
    0.3189   -3.6322    0.0000 S   0  0  0  0  0  0  0  0  0  0  0  0
   -1.8727   -5.2997    0.0000 O   0  0  0  0  0  0  0  0  0  0  0  0
   -0.5956   -3.0768    0.0000 H   0  0  0  0  0  0  0  0  0  0  0  0
    0.5854   -5.7502    0.0000 C   0  0  0  0  0  0  0  0  0  0  0  0
    1.4175   -3.7414    0.0000 C   0  0  0  0  0  0  0  0  0  0  0  0
    1.4236   -4.8455    0.0000 C   0  0  0  0  0  0  0  0  0  0  0  0
   -1.8727   -3.3079    0.0000 N   0  0  0  0  0  0  0  0  0  0  0  0
   -2.6696   -3.5215    0.0000 C   0  0  0  0  0  0  0  0  0  0  0  0
   -3.2530   -2.9381    0.0000 N   0  0  0  0  0  0  0  0  0  0  0  0
   -4.0323   -3.2105    0.0000 C   0  0  0  0  0  0  0  0  0  0  0  0
   -4.7334   -2.7721    0.0000 C   0  0  0  0  0  0  0  0  0  0  0  0
   -2.9829   -2.1600    0.0000 C   0  0  0  0  0  0  0  0  0  0  0  0
   -4.8305   -1.9541    0.0000 C   0  0  0  0  0  0  0  0  0  0  0  0
   -3.4260   -1.4606    0.0000 C   0  0  0  0  0  0  0  0  0  0  0  0
   -4.2472   -1.3723    0.0000 C   0  0  0  0  0  0  0  0  0  0  0  0
    0.0020   -6.3336    0.0000 O   0  0  0  0  0  0  0  0  0  0  0  0
    1.3822   -5.9637    0.0000 O   0  0  0  0  0  0  0  0  0  0  0  0
    1.5958   -6.7606    0.0000 C   0  0  0  0  0  0  0  0  0  0  0  0
    2.3927   -6.9741    0.0000 O   0  0  0  0  0  0  0  0  0  0  0  0
    2.6062   -7.7710    0.0000 C   0  0  0  0  0  0  0  0  0  0  0  0
    3.4031   -7.9845    0.0000 C   0  0  0  0  0  0  0  0  0  0  0  0
    3.6166   -8.7814    0.0000 C   0  0  0  0  0  0  0  0  0  0  0  0
    3.4750   -7.1627    0.0000 C   0  0  0  0  0  0  0  0  0  0  0  0
    4.2249   -7.9126    0.0000 C   0  0  0  0  0  0  0  0  0  0  0  0
    2.0228   -8.3544    0.0000 O   0  0  0  0  0  0  0  0  0  0  0  0
  1  2  1  0
  2  4  1  0
  3  1  1  0
  3  4  1  0
  4  5  1  0
  5  6  1  0
  6  7  1  0
  7  3  1  0
  2  8  2  0
  3  9  1  6
  5 10  1  6
  6 11  1  0
  6 12  1  0
  1 13  1  1
 13 14  2  0
 14 15  1  0
 15 16  1  0
 16 17  1  0
 15 18  1  0
 17 19  1  0
 18 20  1  0
 19 21  1  0
 20 21  1  0
 10 22  2  0
 10 23  1  0
 23 24  1  0
 24 25  1  0
 25 26  1  0
 26 27  1  0
 27 28  1  0
 27 29  1  0
 27 30  1  0
 26 31  2  0
M  END

> <chembl_id>
CHEMBL1650818

> <chembl_pref_name>
AMDINOCILLIN PIVOXIL

$$$$

     RDKit          2D

 33 35  0  0  1  0  0  0  0  0999 V2000
    2.7708   -5.8958    0.0000 N   0  0  0  0  0  0  0  0  0  0  0  0
    2.7667   -5.1875    0.0000 C   0  0  0  0  0  0  0  0  0  0  0  0
    2.0625   -5.9000    0.0000 C   0  0  0  0  0  0  0  0  0  0  0  0
    2.0625   -5.1875    0.0000 C   0  0  0  0  0  0  0  0  0  0  0  0
    3.4458   -6.1125    0.0000 C   0  0  0  0  0  0  0  0  0  0  0  0
    3.4417   -4.9667    0.0000 S   0  0  0  0  0  0  0  0  0  0  0  0
    3.8625   -5.5375    0.0000 C   0  0  0  0  0  0  0  0  0  0  0  0
    3.4417   -6.8167    0.0000 C   0  0  0  0  0  0  0  0  0  0  0  0
    1.4417   -4.8292    0.0000 N   0  0  0  0  0  0  0  0  0  0  0  0
    0.8250   -5.1875    0.0000 C   0  0  0  0  0  0  0  0  0  0  0  0
    4.0500   -7.1792    0.0000 O   0  0  0  0  0  0  0  0  0  0  0  0
    5.2750   -7.1917    0.0000 O   0  0  0  0  0  0  0  0  0  0  0  0
    5.8917   -6.8458    0.0000 C   0  0  0  0  0  0  0  0  0  0  0  0
    0.2125   -4.8333    0.0000 C   0  0  0  0  0  0  0  0  0  0  0  0
    4.6667   -6.8333    0.0000 C   0  0  0  0  0  0  0  0  0  0  0  0
    1.5583   -6.4000    0.0000 O   0  0  0  0  0  0  0  0  0  0  0  0
    2.8208   -7.1667    0.0000 O   0  0  0  0  0  0  0  0  0  0  0  0
    0.8250   -5.8958    0.0000 O   0  0  0  0  0  0  0  0  0  0  0  0
    5.9000   -6.1375    0.0000 O   0  0  0  0  0  0  0  0  0  0  0  0
   -0.4000   -5.1875    0.0000 C   0  0  0  0  0  0  0  0  0  0  0  0
    0.2125   -4.1250    0.0000 N   0  0  0  0  0  0  0  0  0  0  0  0
    6.5042   -7.2083    0.0000 O   0  0  0  0  0  0  0  0  0  0  0  0
    4.4750   -5.8917    0.0000 C   0  0  0  0  0  0  0  0  0  0  0  0
    4.4750   -5.1792    0.0000 C   0  0  0  0  0  0  0  0  0  0  0  0
    4.6750   -6.1250    0.0000 C   0  0  0  0  0  0  0  0  0  0  0  0
   -0.4000   -5.8875    0.0000 C   0  0  0  0  0  0  0  0  0  0  0  0
   -1.0125   -4.8292    0.0000 C   0  0  0  0  0  0  0  0  0  0  0  0
    7.1208   -6.8583    0.0000 C   0  0  0  0  0  0  0  0  0  0  0  0
    7.7292   -7.2208    0.0000 C   0  0  0  0  0  0  0  0  0  0  0  0
   -1.6250   -5.1833    0.0000 C   0  0  0  0  0  0  0  0  0  0  0  0
   -1.0083   -6.2458    0.0000 C   0  0  0  0  0  0  0  0  0  0  0  0
   -1.6250   -5.8917    0.0000 C   0  0  0  0  0  0  0  0  0  0  0  0
    2.7625   -4.4792    0.0000 H   0  0  0  0  0  0  0  0  0  0  0  0
  2  1  1  0
  3  1  1  0
  4  3  1  0
  5  1  1  0
  6  2  1  0
  7  5  1  0
  5  8  1  6
  4  9  1  1
 10  9  1  0
 11  8  1  0
 12 15  1  0
 13 12  1  0
 14 10  1  0
 15 11  1  0
 16  3  2  0
 17  8  2  0
 18 10  2  0
 19 13  2  0
 20 14  1  0
 14 21  1  1
 22 13  1  0
 23  7  1  0
 24  7  1  0
 25 15  1  0
 26 20  1  0
 27 20  2  0
 28 22  1  0
 29 28  1  0
 30 27  1  0
 31 26  2  0
 32 31  1  0
  2 33  1  6
  6  7  1  0
  4  2  1  0
 32 30  2  0
M  END

> <chembl_id>
CHEMBL1583

> <chembl_pref_name>
BACAMPICILLIN

$$$$

     RDKit          2D

 33 35  0  0  1  0  0  0  0  0999 V2000
    6.9187   -1.4116    0.0000 N   0  0  0  0  0  0  0  0  0  0  0  0
    6.9187   -0.5854    0.0000 C   0  0  0  0  0  0  0  0  0  0  0  0
    6.0925   -1.4116    0.0000 C   0  0  0  0  0  0  0  0  0  0  0  0
    6.0925   -0.5854    0.0000 C   0  0  0  0  0  0  0  0  0  0  0  0
    7.6990   -1.6620    0.0000 C   0  0  0  0  0  0  0  0  0  0  0  0
    7.6990   -0.3309    0.0000 S   0  0  0  0  0  0  0  0  0  0  0  0
    8.1831   -0.9943    0.0000 C   0  0  0  0  0  0  0  0  0  0  0  0
    5.5084   -0.0054    0.0000 N   0  0  0  0  0  0  0  0  0  0  0  0
    4.7073   -0.2182    0.0000 C   0  0  0  0  0  0  0  0  0  0  0  0
    7.9576   -2.4507    0.0000 C   0  0  0  0  0  0  0  0  0  0  0  0
    7.3443   -5.2296    0.0000 C   0  0  0  0  0  0  0  0  0  0  0  0
    4.1273    0.3701    0.0000 C   0  0  0  0  0  0  0  0  0  0  0  0
    5.5084   -1.9874    0.0000 O   0  0  0  0  0  0  0  0  0  0  0  0
    6.7810   -5.8387    0.0000 C   0  0  0  0  0  0  0  0  0  0  0  0
    4.4945   -0.9986    0.0000 O   0  0  0  0  0  0  0  0  0  0  0  0
    7.3986   -3.0640    0.0000 O   0  0  0  0  0  0  0  0  0  0  0  0
    7.0940   -4.4534    0.0000 O   0  0  0  0  0  0  0  0  0  0  0  0
    7.6489   -3.8483    0.0000 C   0  0  0  0  0  0  0  0  0  0  0  0
    8.7587   -2.6258    0.0000 O   0  0  0  0  0  0  0  0  0  0  0  0
    8.1454   -5.4173    0.0000 O   0  0  0  0  0  0  0  0  0  0  0  0
    3.3261    0.1656    0.0000 C   0  0  0  0  0  0  0  0  0  0  0  0
    4.3401    1.1546    0.0000 N   0  0  0  0  0  0  0  0  0  0  0  0
    8.8256   -1.5118    0.0000 C   0  0  0  0  0  0  0  0  0  0  0  0
    8.6711   -0.3226    0.0000 C   0  0  0  0  0  0  0  0  0  0  0  0
    6.2219   -6.4438    0.0000 C   0  0  0  0  0  0  0  0  0  0  0  0
    7.3861   -6.3937    0.0000 C   0  0  0  0  0  0  0  0  0  0  0  0
    6.1802   -5.2797    0.0000 C   0  0  0  0  0  0  0  0  0  0  0  0
    2.7420    0.7415    0.0000 C   0  0  0  0  0  0  0  0  0  0  0  0
    3.1050   -0.6356    0.0000 C   0  0  0  0  0  0  0  0  0  0  0  0
    2.3122   -0.8484    0.0000 C   0  0  0  0  0  0  0  0  0  0  0  0
    1.9534    0.5327    0.0000 C   0  0  0  0  0  0  0  0  0  0  0  0
    1.7280   -0.2600    0.0000 C   0  0  0  0  0  0  0  0  0  0  0  0
    6.9187    0.2407    0.0000 H   0  0  0  0  0  0  0  0  0  0  0  0
  2  1  1  0
  3  1  1  0
  4  3  1  0
  5  1  1  0
  6  2  1  0
  7  5  1  0
  4  8  1  1
  9  8  1  0
  5 10  1  6
 11 17  1  0
 12  9  1  0
 13  3  2  0
 14 11  1  0
 15  9  2  0
 16 10  1  0
 17 18  1  0
 18 16  1  0
 19 10  2  0
 20 11  2  0
 21 12  1  0
 12 22  1  1
 23  7  1  0
 24  7  1  0
 25 14  1  0
 26 14  1  0
 27 14  1  0
 28 21  2  0
 29 21  1  0
 30 29  2  0
 31 28  1  0
 32 30  1  0
  2 33  1  6
  6  7  1  0
  2  4  1  0
 31 32  2  0
M  END

> <chembl_id>
CHEMBL3182343

> <chembl_pref_name>
PIVAMPICILLIN

$$$$

     RDKit          2D

 27 29  0  0  1  0  0  0  0  0999 V2000
    7.4045   -7.3799    0.0000 N   0  0  0  0  0  0  0  0  0  0  0  0
    7.4045   -6.5549    0.0000 C   0  0  0  0  0  0  0  0  0  0  0  0
    6.5631   -7.3799    0.0000 C   0  0  0  0  0  0  0  0  0  0  0  0
    6.5631   -6.5549    0.0000 C   0  0  0  0  0  0  0  0  0  0  0  0
    8.2254   -7.6508    0.0000 C   0  0  0  0  0  0  0  0  0  0  0  0
    8.2254   -6.2963    0.0000 S   0  0  0  0  0  0  0  0  0  0  0  0
    8.7097   -6.9694    0.0000 C   0  0  0  0  0  0  0  0  0  0  0  0
    5.7668   -6.7765    0.0000 N   0  0  0  0  0  0  0  0  0  0  0  0
    5.1224   -6.2717    0.0000 C   0  0  0  0  0  0  0  0  0  0  0  0
    8.5209   -8.4593    0.0000 C   0  0  0  0  0  0  0  0  0  0  0  0
    4.3138   -6.2717    0.0000 C   0  0  0  0  0  0  0  0  0  0  0  0
    5.9762   -7.9832    0.0000 O   0  0  0  0  0  0  0  0  0  0  0  0
    3.9198   -5.5821    0.0000 N   0  0  0  0  0  0  0  0  0  0  0  0
    5.5287   -5.5944    0.0000 O   0  0  0  0  0  0  0  0  0  0  0  0
    9.3500   -8.6235    0.0000 O   0  0  0  0  0  0  0  0  0  0  0  0
    3.8952   -6.9982    0.0000 C   0  0  0  0  0  0  0  0  0  0  0  0
    7.9463   -9.1119    0.0000 O   0  0  0  0  0  0  0  0  0  0  0  0
    9.2228   -6.2717    0.0000 C   0  0  0  0  0  0  0  0  0  0  0  0
    9.3747   -7.4907    0.0000 C   0  0  0  0  0  0  0  0  0  0  0  0
    3.1441   -5.5821    0.0000 C   0  0  0  0  0  0  0  0  0  0  0  0
    4.3015   -7.6754    0.0000 C   0  0  0  0  0  0  0  0  0  0  0  0
    3.0948   -6.9982    0.0000 C   0  0  0  0  0  0  0  0  0  0  0  0
    3.8952   -8.3608    0.0000 C   0  0  0  0  0  0  0  0  0  0  0  0
    2.6843   -7.6754    0.0000 C   0  0  0  0  0  0  0  0  0  0  0  0
    3.0948   -8.3608    0.0000 C   0  0  0  0  0  0  0  0  0  0  0  0
    7.4045   -5.7053    0.0000 H   0  0  0  0  0  0  0  0  0  0  0  0
    6.5631   -5.7053    0.0000 H   0  0  0  0  0  0  0  0  0  0  0  0
  2  1  1  0
  3  1  1  0
  4  3  1  0
  5  1  1  0
  6  2  1  0
  7  5  1  0
  4  8  1  1
  9  8  1  0
  5 10  1  6
 11  9  1  0
 12  3  2  0
 13 11  1  0
 14  9  2  0
 15 10  2  0
 11 16  1  1
 17 10  1  0
 18  7  1  0
 19  7  1  0
 20 13  2  0
 21 16  1  0
 22 16  2  0
 23 21  2  0
 24 22  1  0
 25 24  2  0
  2 26  1  6
  4 27  1  6
  7  6  1  0
  4  2  1  0
 25 23  1  0
M  END

> <chembl_id>
CHEMBL1908324

> <chembl_pref_name>
METAMPICILLIN

$$$$

     RDKit          2D

 32 33  0  0  0  0  0  0  0  0999 V2000
    7.3661   -8.8982    0.0000 O   0  0  0  0  0  0  0  0  0  0  0  0
    3.3037   -8.6965    0.0000 N   0  0  0  0  0  0  0  0  0  0  0  0
    3.2989   -7.8706    0.0000 C   0  0  0  0  0  0  0  0  0  0  0  0
    2.4778   -8.7014    0.0000 C   0  0  0  0  0  0  0  0  0  0  0  0
    2.4778   -7.8706    0.0000 C   0  0  0  0  0  0  0  0  0  0  0  0
    4.0907   -8.9491    0.0000 C   0  0  0  0  0  0  0  0  0  0  0  0
    4.0859   -7.6131    0.0000 S   0  0  0  0  0  0  0  0  0  0  0  0
    1.0348   -7.8706    0.0000 C   0  0  0  0  0  0  0  0  0  0  0  0
    4.5766   -8.2787    0.0000 C   0  0  0  0  0  0  0  0  0  0  0  0
    1.7539   -7.4528    0.0000 N   0  0  0  0  0  0  0  0  0  0  0  0
    0.3207   -7.4576    0.0000 C   0  0  0  0  0  0  0  0  0  0  0  0
    4.0859   -9.7702    0.0000 C   0  0  0  0  0  0  0  0  0  0  0  0
   -0.3886   -7.8706    0.0000 C   0  0  0  0  0  0  0  0  0  0  0  0
    1.8899   -9.2844    0.0000 O   0  0  0  0  0  0  0  0  0  0  0  0
    0.3256   -6.6268    0.0000 C   0  0  0  0  0  0  0  0  0  0  0  0
    1.0348   -8.6965    0.0000 O   0  0  0  0  0  0  0  0  0  0  0  0
    4.7952  -10.1929    0.0000 O   0  0  0  0  0  0  0  0  0  0  0  0
    3.3620  -10.1783    0.0000 O   0  0  0  0  0  0  0  0  0  0  0  0
   -1.1028   -7.4576    0.0000 C   0  0  0  0  0  0  0  0  0  0  0  0
   -0.3886   -6.2139    0.0000 C   0  0  0  0  0  0  0  0  0  0  0  0
   -1.1028   -6.6268    0.0000 C   0  0  0  0  0  0  0  0  0  0  0  0
    5.2908   -8.6917    0.0000 C   0  0  0  0  0  0  0  0  0  0  0  0
    5.2908   -7.8609    0.0000 C   0  0  0  0  0  0  0  0  0  0  0  0
    1.0445   -6.2187    0.0000 O   0  0  0  0  0  0  0  0  0  0  0  0
   -0.3839   -8.6868    0.0000 C   0  0  0  0  0  0  0  0  0  0  0  0
   -1.8122   -7.8706    0.0000 C   0  0  0  0  0  0  0  0  0  0  0  0
    1.7587   -6.6317    0.0000 C   0  0  0  0  0  0  0  0  0  0  0  0
   -1.0882   -9.0998    0.0000 C   0  0  0  0  0  0  0  0  0  0  0  0
    2.4729   -6.2236    0.0000 C   0  0  0  0  0  0  0  0  0  0  0  0
   -1.8073   -8.6965    0.0000 C   0  0  0  0  0  0  0  0  0  0  0  0
    3.2940   -7.0447    0.0000 H   0  0  0  0  0  0  0  0  0  0  0  0
    5.8204  -10.2026    0.0000 Na  0  0  0  0  0 15  0  0  0  0  0  0
  3  2  1  0
  4  2  1  0
  5  4  1  0
  6  2  1  0
  7  3  1  0
  8 10  1  0
  9  6  1  0
  5 10  1  1
 11  8  1  0
  6 12  1  6
 13 11  1  0
 14  4  2  0
 15 11  2  0
 16  8  2  0
 17 12  1  0
 18 12  2  0
 19 13  1  0
 20 15  1  0
 21 19  1  0
 22  9  1  0
 23  9  1  0
 24 15  1  0
 25 13  2  0
 26 19  2  0
 27 24  1  0
 28 25  1  0
 29 27  1  0
 30 28  2  0
  3 31  1  6
  7  9  1  0
  5  3  1  0
 21 20  2  0
 30 26  1  0
M  CHG  2  17  -1  32   1
M  END

> <chembl_id>
CHEMBL1568276

> <chembl_pref_name>
NAFCILLIN SODIUM

$$$$

     RDKit          2D

 24 26  0  0  0  0  0  0  0  0999 V2000
    2.8412   -2.3629    0.0000 S   0  0  0  0  0  0  0  0  0  0  0  0
    3.8802    0.1858    0.0000 O   0  0  0  0  0  0  0  0  0  0  0  0
    5.3290   -2.7957    0.0000 O   0  0  0  0  0  0  0  0  0  0  0  0
    5.4038   -1.3687    0.0000 O   0  0  0  0  0  0  0  0  0  0  0  0
    1.2419   -1.5672    0.0000 O   0  0  0  0  0  0  0  0  0  0  0  0
   -0.1871   -0.7422    0.0000 O   0  0  0  0  0  0  0  0  0  0  0  0
    3.6812   -1.3255    0.0000 N   0  0  0  0  0  0  0  0  0  0  0  0
    1.9563   -0.3297    0.0000 N   0  0  0  0  0  0  0  0  0  0  0  0
    2.8843   -1.5391    0.0000 C   0  0  0  0  0  0  0  0  0  0  0  0
    4.1306   -2.0174    0.0000 C   0  0  0  0  0  0  0  0  0  0  0  0
    3.6114   -2.6586    0.0000 C   0  0  0  0  0  0  0  0  0  0  0  0
    2.6708   -0.7422    0.0000 C   0  0  0  0  0  0  0  0  0  0  0  0
    3.4677   -0.5286    0.0000 C   0  0  0  0  0  0  0  0  0  0  0  0
    4.9544   -2.0606    0.0000 C   0  0  0  0  0  0  0  0  0  0  0  0
    3.4062   -3.4577    0.0000 C   0  0  0  0  0  0  0  0  0  0  0  0
    4.1886   -3.2480    0.0000 C   0  0  0  0  0  0  0  0  0  0  0  0
    1.2419   -0.7422    0.0000 C   0  0  0  0  0  0  0  0  0  0  0  0
    0.5274   -0.3297    0.0000 C   0  0  0  0  0  0  0  0  0  0  0  0
   -0.9015   -0.3297    0.0000 C   0  0  0  0  0  0  0  0  0  0  0  0
   -1.6160   -0.7422    0.0000 C   0  0  0  0  0  0  0  0  0  0  0  0
   -0.9015    0.4953    0.0000 C   0  0  0  0  0  0  0  0  0  0  0  0
   -2.3305   -0.3297    0.0000 C   0  0  0  0  0  0  0  0  0  0  0  0
   -1.6160    0.9078    0.0000 C   0  0  0  0  0  0  0  0  0  0  0  0
   -2.3305    0.4953    0.0000 C   0  0  0  0  0  0  0  0  0  0  0  0
  1  9  1  0
  1 11  1  0
  2 13  2  0
  3 14  1  0
  4 14  2  0
  5 17  2  0
  6 18  1  0
  6 19  1  0
  7  9  1  0
  7 10  1  0
  7 13  1  0
  8 12  1  0
  8 17  1  0
  9 12  1  0
 10 11  1  0
 10 14  1  0
 11 15  1  0
 11 16  1  0
 12 13  1  0
 17 18  1  0
 19 20  2  0
 19 21  1  0
 20 22  1  0
 21 23  2  0
 22 24  2  0
 23 24  1  0
M  END

> <chembl_id>
CHEMBL1711169

> <chembl_pref_name>
None

$$$$

     RDKit          2D

 37 40  0  0  1  0  0  0  0  0999 V2000
    1.5375   -2.7375    0.0000 N   0  0  0  0  0  0  0  0  0  0  0  0
    1.5500   -2.0292    0.0000 C   0  0  0  0  0  0  0  0  0  0  0  0
    0.8292   -2.7375    0.0000 C   0  0  0  0  0  0  0  0  0  0  0  0
    0.8292   -2.0292    0.0000 C   0  0  0  0  0  0  0  0  0  0  0  0
    2.2167   -2.9625    0.0000 C   0  0  0  0  0  0  0  0  0  0  0  0
    2.2292   -1.8125    0.0000 S   0  0  0  0  0  0  0  0  0  0  0  0
    2.6375   -2.3917    0.0000 C   0  0  0  0  0  0  0  0  0  0  0  0
    2.4292   -3.6417    0.0000 C   0  0  0  0  0  0  0  0  0  0  0  0
    0.3292   -1.5292    0.0000 N   0  0  0  0  0  0  0  0  0  0  0  0
   -0.3583   -1.7125    0.0000 C   0  0  0  0  0  0  0  0  0  0  0  0
    3.1292   -3.7917    0.0000 O   0  0  0  0  0  0  0  0  0  0  0  0
    5.2167   -4.2417    0.0000 C   0  0  0  0  0  0  0  0  0  0  0  0
    0.3292   -3.2417    0.0000 O   0  0  0  0  0  0  0  0  0  0  0  0
    1.9542   -4.1667    0.0000 O   0  0  0  0  0  0  0  0  0  0  0  0
    5.4292   -4.9250    0.0000 O   0  0  0  0  0  0  0  0  0  0  0  0
    4.5250   -4.0917    0.0000 O   0  0  0  0  0  0  0  0  0  0  0  0
   -0.5458   -2.4000    0.0000 O   0  0  0  0  0  0  0  0  0  0  0  0
    3.3500   -4.4667    0.0000 C   0  0  0  0  0  0  0  0  0  0  0  0
   -0.8625   -1.2042    0.0000 C   0  0  0  0  0  0  0  0  0  0  0  0
    5.7000   -3.7167    0.0000 C   0  0  0  0  0  0  0  0  0  0  0  0
    4.0417   -4.6250    0.0000 C   0  0  0  0  0  0  0  0  0  0  0  0
    4.9542   -5.4500    0.0000 C   0  0  0  0  0  0  0  0  0  0  0  0
    3.2542   -2.7500    0.0000 C   0  0  0  0  0  0  0  0  0  0  0  0
    3.1417   -1.8875    0.0000 C   0  0  0  0  0  0  0  0  0  0  0  0
    4.2542   -5.3042    0.0000 C   0  0  0  0  0  0  0  0  0  0  0  0
   -1.5500   -1.3875    0.0000 C   0  0  0  0  0  0  0  0  0  0  0  0
    3.0792   -5.6667    0.0000 C   0  0  0  0  0  0  0  0  0  0  0  0
    2.8667   -5.0000    0.0000 C   0  0  0  0  0  0  0  0  0  0  0  0
    3.7792   -5.8250    0.0000 C   0  0  0  0  0  0  0  0  0  0  0  0
    5.4750   -3.0500    0.0000 C   0  0  0  0  0  0  0  0  0  0  0  0
    6.3917   -3.8667    0.0000 C   0  0  0  0  0  0  0  0  0  0  0  0
   -1.7333   -2.0792    0.0000 C   0  0  0  0  0  0  0  0  0  0  0  0
   -2.0583   -0.8875    0.0000 C   0  0  0  0  0  0  0  0  0  0  0  0
   -2.4208   -2.2625    0.0000 C   0  0  0  0  0  0  0  0  0  0  0  0
   -2.7333   -1.0667    0.0000 C   0  0  0  0  0  0  0  0  0  0  0  0
   -2.9250   -1.7625    0.0000 C   0  0  0  0  0  0  0  0  0  0  0  0
    1.5375   -1.3167    0.0000 H   0  0  0  0  0  0  0  0  0  0  0  0
  2  1  1  0
  3  1  1  0
  4  3  1  0
  5  1  1  0
  6  2  1  0
  7  5  1  0
  5  8  1  6
  4  9  1  1
 10  9  1  0
 11  8  1  0
 12 15  1  0
 13  3  2  0
 14  8  2  0
 15 22  1  0
 16 12  2  0
 17 10  2  0
 18 11  1  0
 19 10  1  0
 20 12  1  0
 21 18  2  0
 22 25  1  0
 23  7  1  0
 24  7  1  0
 25 21  1  0
 26 19  1  0
 27 28  2  0
 28 18  1  0
 29 27  1  0
 30 20  1  0
 31 20  1  0
 32 26  2  0
 33 26  1  0
 34 32  1  0
 35 33  2  0
 36 35  1  0
  2 37  1  6
  7  6  1  0
  4  2  1  0
 29 25  2  0
 36 34  2  0
M  END

> <chembl_id>
CHEMBL2105430

> <chembl_pref_name>
TOBICILLIN

$$$$

     RDKit          2D

 25 26  0  0  0  0  0  0  0  0999 V2000
   24.9503  -13.4464    0.0000 N   0  0  0  0  0  0  0  0  0  0  0  0
   25.7484  -13.6354    0.0000 C   0  0  0  0  0  0  0  0  0  0  0  0
   25.5468  -14.4545    0.0000 C   0  0  0  0  0  0  0  0  0  0  0  0
   24.7403  -14.2641    0.0000 C   0  0  0  0  0  0  0  0  0  0  0  0
   24.0281  -14.6759    0.0000 O   0  0  0  0  0  0  0  0  0  0  0  0
   25.9780  -15.1587    0.0000 N   0  0  0  0  0  0  0  0  0  0  0  0
   26.8027  -15.1335    0.0000 C   0  0  0  0  0  0  0  0  0  0  0  0
   27.1219  -14.5566    0.0000 O   0  0  0  0  0  0  0  0  0  0  0  0
   27.2395  -15.8391    0.0000 C   0  0  0  0  0  0  0  0  0  0  0  0
   28.0586  -15.8195    0.0000 C   0  0  0  0  0  0  0  0  0  0  0  0
   28.4562  -15.0887    0.0000 C   0  0  0  0  0  0  0  0  0  0  0  0
   29.2753  -15.0677    0.0000 C   0  0  0  0  0  0  0  0  0  0  0  0
   29.7080  -15.7692    0.0000 C   0  0  0  0  0  0  0  0  0  0  0  0
   29.3201  -16.4944    0.0000 C   0  0  0  0  0  0  0  0  0  0  0  0
   28.4913  -16.5196    0.0000 C   0  0  0  0  0  0  0  0  0  0  0  0
   26.1685  -12.9423    0.0000 S   0  0  0  0  0  0  0  0  0  0  0  0
   25.6322  -12.3207    0.0000 C   0  0  0  0  0  0  0  0  0  0  0  0
   24.8845  -12.6469    0.0000 C   0  0  0  0  0  0  0  0  0  0  0  0
   24.1723  -12.2351    0.0000 C   0  0  0  0  0  0  0  0  0  0  0  0
   23.4601  -12.6469    0.0000 O   0  0  0  0  0  0  0  0  0  0  0  0
   24.1723  -11.4115    0.0000 O   0  0  0  0  0  0  0  0  0  0  0  0
   26.2178  -11.7393    0.0000 C   0  0  0  0  0  0  0  0  0  0  0  0
   25.4201  -11.5287    0.0000 C   0  0  0  0  0  0  0  0  0  0  0  0
   26.5678  -13.6354    0.0000 H   0  0  0  0  0  0  0  0  0  0  0  0
   21.1420  -13.0909    0.0000 Na  0  0  0  0  0 15  0  0  0  0  0  0
  2  1  1  0
  3  2  1  0
  3  4  1  0
  4  1  1  0
  4  5  2  0
  3  6  1  6
  7  6  1  0
  8  7  2  0
  9  7  1  0
 10  9  1  0
 11 10  1  0
 12 11  2  0
 13 12  1  0
 13 14  2  0
 14 15  1  0
 15 10  2  0
 16  2  1  0
 17 16  1  0
 17 18  1  0
 18  1  1  0
 18 19  1  0
 19 20  1  0
 19 21  2  0
 17 22  1  0
 17 23  1  0
  2 24  1  1
M  CHG  2  20  -1  25   1
M  END

> <chembl_id>
CHEMBL4636265

> <chembl_pref_name>
None

$$$$

     RDKit          2D

 23 25  0  0  0  0  0  0  0  0999 V2000
    7.8417  -27.8333    0.0000 N   0  0  0  0  0  0  0  0  0  0  0  0
    8.6667  -27.8333    0.0000 C   0  0  0  0  0  0  0  0  0  0  0  0
    9.0769  -27.1228    0.0000 N   0  0  0  0  0  0  0  0  0  0  0  0
    8.6667  -26.4077    0.0000 C   0  0  0  0  0  0  0  0  0  0  0  0
    7.8417  -26.4077    0.0000 C   0  0  0  0  0  0  0  0  0  0  0  0
    7.4269  -27.1228    0.0000 C   0  0  0  0  0  0  0  0  0  0  0  0
    9.8974  -27.1229    0.0000 C   0  0  0  0  0  0  0  0  0  0  0  0
   10.3083  -27.8396    0.0000 C   0  0  0  0  0  0  0  0  0  0  0  0
   11.1326  -27.8410    0.0000 C   0  0  0  0  0  0  0  0  0  0  0  0
   11.5469  -27.1266    0.0000 C   0  0  0  0  0  0  0  0  0  0  0  0
   11.1309  -26.4092    0.0000 C   0  0  0  0  0  0  0  0  0  0  0  0
   10.3081  -26.4112    0.0000 C   0  0  0  0  0  0  0  0  0  0  0  0
    6.6063  -27.1250    0.0000 C   0  0  0  0  0  0  0  0  0  0  0  0
    6.1935  -26.4095    0.0000 C   0  0  0  0  0  0  0  0  0  0  0  0
    5.3692  -26.4103    0.0000 C   0  0  0  0  0  0  0  0  0  0  0  0
    4.9569  -27.1259    0.0000 C   0  0  0  0  0  0  0  0  0  0  0  0
    5.3748  -27.8421    0.0000 C   0  0  0  0  0  0  0  0  0  0  0  0
    6.1977  -27.8378    0.0000 C   0  0  0  0  0  0  0  0  0  0  0  0
    4.9540  -25.6958    0.0000 N   0  0  0  0  0  0  0  0  0  0  0  0
    4.1290  -25.6966    0.0000 O   0  0  0  0  0  0  0  0  0  0  0  0
    5.3658  -24.9810    0.0000 O   0  0  0  0  0  0  0  0  0  0  0  0
    9.0792  -28.5478    0.0000 O   0  0  0  0  0  0  0  0  0  0  0  0
    9.8946  -25.6973    0.0000 O   0  0  0  0  0  0  0  0  0  0  0  0
 11 12  2  0
 12  7  1  0
  3  7  1  0
  5  6  2  0
 13 14  2  0
  1  2  1  0
 14 15  1  0
  7  8  2  0
 15 16  2  0
  1  6  1  0
 16 17  1  0
  8  9  1  0
 17 18  2  0
 18 13  1  0
  6 13  1  0
  2  3  1  0
  9 10  2  0
  3  4  1  0
 19 20  2  0
 19 21  1  0
 15 19  1  0
 10 11  1  0
  2 22  2  0
  4  5  1  0
 12 23  1  0
M  CHG  2  19   1  21  -1
M  END

> <chembl_id>
CHEMBL258405

> <chembl_pref_name>
ICILLIN

$$$$

     RDKit          2D

 27 28  0  0  0  0  0  0  0  0999 V2000
    2.9170   -1.8562    0.0000 K   0  0  0  0  0 15  0  0  0  0  0  0
    0.1226    1.3788    0.0000 C   0  0  0  0  0  0  0  0  0  0  0  0
   -0.7024    1.3788    0.0000 C   0  0  0  0  0  0  0  0  0  0  0  0
   -0.7024    0.5538    0.0000 C   0  0  0  0  0  0  0  0  0  0  0  0
    0.1226    0.5538    0.0000 N   0  0  0  0  0  0  0  0  0  0  0  0
    0.9072    0.2989    0.0000 C   0  0  0  0  0  0  0  0  0  0  0  0
    1.3921    0.9663    0.0000 C   0  0  0  0  0  0  0  0  0  0  0  0
    0.9072    1.6337    0.0000 S   0  0  0  0  0  0  0  0  0  0  0  0
   -1.2858    1.9622    0.0000 N   0  0  0  0  0  0  0  0  0  0  0  0
   -1.2858   -0.0295    0.0000 O   0  0  0  0  0  0  0  0  0  0  0  0
    1.1621   -0.4857    0.0000 C   0  0  0  0  0  0  0  0  0  0  0  0
    1.9691   -0.6573    0.0000 O   0  0  0  0  0  0  0  0  0  0  0  0
    0.6100   -1.0988    0.0000 O   0  0  0  0  0  0  0  0  0  0  0  0
    1.9755    1.5497    0.0000 C   0  0  0  0  0  0  0  0  0  0  0  0
    2.1066    0.5538    0.0000 C   0  0  0  0  0  0  0  0  0  0  0  0
    0.1226    2.2038    0.0000 H   0  0  0  0  0  0  0  0  0  0  0  0
   -2.0827    1.7487    0.0000 C   0  0  0  0  0  0  0  0  0  0  0  0
   -2.6660    2.3320    0.0000 C   0  0  0  0  0  0  0  0  0  0  0  0
   -2.2962    0.9518    0.0000 O   0  0  0  0  0  0  0  0  0  0  0  0
   -3.4629    2.1185    0.0000 O   0  0  0  0  0  0  0  0  0  0  0  0
   -2.4525    3.1289    0.0000 C   0  0  0  0  0  0  0  0  0  0  0  0
   -4.0463    2.7019    0.0000 C   0  0  0  0  0  0  0  0  0  0  0  0
   -3.8327    3.4988    0.0000 C   0  0  0  0  0  0  0  0  0  0  0  0
   -4.4161    4.0822    0.0000 C   0  0  0  0  0  0  0  0  0  0  0  0
   -5.2130    3.8686    0.0000 C   0  0  0  0  0  0  0  0  0  0  0  0
   -5.4265    3.0717    0.0000 C   0  0  0  0  0  0  0  0  0  0  0  0
   -4.8432    2.4883    0.0000 C   0  0  0  0  0  0  0  0  0  0  0  0
  2  3  1  0
  3  4  1  0
  4  5  1  0
  5  6  1  0
  2  5  1  0
  2  8  1  0
  6  7  1  0
  7  8  1  0
  3  9  1  1
  4 10  2  0
  6 11  1  6
 11 12  1  0
 11 13  2  0
  7 14  1  0
  7 15  1  0
  2 16  1  6
  9 17  1  0
 17 18  1  0
 17 19  2  0
 18 20  1  0
 18 21  1  0
 20 22  1  0
 22 23  1  0
 22 27  2  0
 23 24  2  0
 24 25  1  0
 25 26  2  0
 26 27  1  0
M  CHG  2   1   1  12  -1
M  END

> <chembl_id>
CHEMBL2364720

> <chembl_pref_name>
PHENETHICILLIN POTASSIUM

$$$$

     RDKit          2D

 32 33  0  0  0  0  0  0  0  0999 V2000
    3.7417   -7.9375    0.0000 O   0  0  0  0  0  0  0  0  0  0  0  0
    5.0667   -6.4417    0.0000 N   0  0  0  0  0  0  0  0  0  0  0  0
    5.0875   -5.7292    0.0000 C   0  0  0  0  0  0  0  0  0  0  0  0
    4.3792   -6.4292    0.0000 C   0  0  0  0  0  0  0  0  0  0  0  0
    4.3875   -5.7042    0.0000 C   0  0  0  0  0  0  0  0  0  0  0  0
    2.5417   -5.3500    0.0000 C   0  0  0  0  0  0  0  0  0  0  0  0
    1.9667   -5.7667    0.0000 C   0  0  0  0  0  0  0  0  0  0  0  0
    5.7542   -6.7042    0.0000 C   0  0  0  0  0  0  0  0  0  0  0  0
    5.8000   -5.5625    0.0000 S   0  0  0  0  0  0  0  0  0  0  0  0
    3.1542   -5.7042    0.0000 C   0  0  0  0  0  0  0  0  0  0  0  0
    1.3917   -5.3500    0.0000 N   0  0  0  0  0  0  0  0  0  0  0  0
    6.1917   -6.1542    0.0000 C   0  0  0  0  0  0  0  0  0  0  0  0
    3.7667   -5.3500    0.0000 N   0  0  0  0  0  0  0  0  0  0  0  0
    1.9667   -6.4792    0.0000 C   0  0  0  0  0  0  0  0  0  0  0  0
    1.6125   -4.6792    0.0000 O   0  0  0  0  0  0  0  0  0  0  0  0
    2.3167   -4.6792    0.0000 C   0  0  0  0  0  0  0  0  0  0  0  0
    5.7167   -7.4292    0.0000 C   0  0  0  0  0  0  0  0  0  0  0  0
    3.8542   -6.8792    0.0000 O   0  0  0  0  0  0  0  0  0  0  0  0
    3.1542   -6.4125    0.0000 O   0  0  0  0  0  0  0  0  0  0  0  0
    1.3542   -6.8292    0.0000 C   0  0  0  0  0  0  0  0  0  0  0  0
    6.3417   -7.8167    0.0000 O   0  0  0  0  0  0  0  0  0  0  0  0
    5.0792   -7.7792    0.0000 O   0  0  0  0  0  0  0  0  0  0  0  0
    0.7417   -6.4750    0.0000 Cl  0  0  0  0  0  0  0  0  0  0  0  0
    6.7625   -5.7167    0.0000 C   0  0  0  0  0  0  0  0  0  0  0  0
    6.7042   -6.6542    0.0000 C   0  0  0  0  0  0  0  0  0  0  0  0
    2.5792   -6.8292    0.0000 C   0  0  0  0  0  0  0  0  0  0  0  0
    2.7375   -4.1042    0.0000 C   0  0  0  0  0  0  0  0  0  0  0  0
    1.3542   -7.5375    0.0000 C   0  0  0  0  0  0  0  0  0  0  0  0
    2.5792   -7.5375    0.0000 C   0  0  0  0  0  0  0  0  0  0  0  0
    1.9667   -7.8917    0.0000 C   0  0  0  0  0  0  0  0  0  0  0  0
    5.0417   -5.1292    0.0000 H   0  0  0  0  0  0  0  0  0  0  0  0
    7.1792   -7.8125    0.0000 Na  0  0  0  0  0 15  0  0  0  0  0  0
  3  2  1  0
  4  2  1  0
  5  4  1  0
  6 10  1  0
  7  6  1  0
  8  2  1  0
  9  3  1  0
 10 13  1  0
 11  7  2  0
 12  8  1  0
  5 13  1  1
 14  7  1  0
 15 16  1  0
 16  6  2  0
  8 17  1  6
 18  4  2  0
 19 10  2  0
 20 14  2  0
 21 17  1  0
 22 17  2  0
 23 20  1  0
 24 12  1  0
 25 12  1  0
 26 14  1  0
 27 16  1  0
 28 20  1  0
 29 26  2  0
 30 29  1  0
  3 31  1  6
 12  9  1  0
  5  3  1  0
 15 11  1  0
 30 28  2  0
M  CHG  2  21  -1  32   1
M  END

> <chembl_id>
CHEMBL1200388

> <chembl_pref_name>
CLOXACILLIN SODIUM

$$$$

     RDKit          2D

 70 71  0  0  0  0  0  0  0  0999 V2000
   10.6955  -12.6696    0.0000 O   0  0  0  0  0  0  0  0  0  0  0  0
    1.3005   -9.1954    0.0000 N   0  0  0  0  0  0  0  0  0  0  0  0
    1.2956   -8.3705    0.0000 C   0  0  0  0  0  0  0  0  0  0  0  0
    0.4707   -9.2003    0.0000 C   0  0  0  0  0  0  0  0  0  0  0  0
    0.4707   -8.3705    0.0000 C   0  0  0  0  0  0  0  0  0  0  0  0
    2.0866   -9.4478    0.0000 C   0  0  0  0  0  0  0  0  0  0  0  0
    2.0817   -8.1134    0.0000 S   0  0  0  0  0  0  0  0  0  0  0  0
    2.5718   -8.7781    0.0000 C   0  0  0  0  0  0  0  0  0  0  0  0
   -0.2475   -7.9533    0.0000 N   0  0  0  0  0  0  0  0  0  0  0  0
    2.0817  -10.2679    0.0000 C   0  0  0  0  0  0  0  0  0  0  0  0
   -0.9657   -8.3705    0.0000 C   0  0  0  0  0  0  0  0  0  0  0  0
   -0.1116   -9.7826    0.0000 O   0  0  0  0  0  0  0  0  0  0  0  0
    1.3587  -10.6755    0.0000 O   0  0  0  0  0  0  0  0  0  0  0  0
   -0.9657   -9.1954    0.0000 O   0  0  0  0  0  0  0  0  0  0  0  0
   -1.6790   -7.9580    0.0000 C   0  0  0  0  0  0  0  0  0  0  0  0
    2.7901  -10.6901    0.0000 O   0  0  0  0  0  0  0  0  0  0  0  0
    3.2803   -9.1906    0.0000 C   0  0  0  0  0  0  0  0  0  0  0  0
    3.2803   -8.3609    0.0000 C   0  0  0  0  0  0  0  0  0  0  0  0
   -2.3923   -8.3705    0.0000 C   0  0  0  0  0  0  0  0  0  0  0  0
   -3.1056   -7.9533    0.0000 C   0  0  0  0  0  0  0  0  0  0  0  0
   -2.3923   -9.1858    0.0000 C   0  0  0  0  0  0  0  0  0  0  0  0
   -3.8189   -8.3656    0.0000 C   0  0  0  0  0  0  0  0  0  0  0  0
   -3.1007   -9.6030    0.0000 C   0  0  0  0  0  0  0  0  0  0  0  0
   -3.8189   -9.1906    0.0000 C   0  0  0  0  0  0  0  0  0  0  0  0
    1.2859   -7.5457    0.0000 H   0  0  0  0  0  0  0  0  0  0  0  0
    9.5739   -8.6422    0.0000 N   0  0  0  0  0  0  0  0  0  0  0  0
    7.4292   -9.0596    0.0000 N   0  0  0  0  0  0  0  0  0  0  0  0
    6.0026   -9.0644    0.0000 C   0  0  0  0  0  0  0  0  0  0  0  0
   11.0054   -8.6375    0.0000 C   0  0  0  0  0  0  0  0  0  0  0  0
   10.2872   -9.0547    0.0000 C   0  0  0  0  0  0  0  0  0  0  0  0
    6.7159   -8.6520    0.0000 C   0  0  0  0  0  0  0  0  0  0  0  0
    8.8606   -9.0596    0.0000 C   0  0  0  0  0  0  0  0  0  0  0  0
    8.1473   -8.6471    0.0000 C   0  0  0  0  0  0  0  0  0  0  0  0
    5.2844   -8.6520    0.0000 C   0  0  0  0  0  0  0  0  0  0  0  0
    6.0026   -9.8991    0.0000 C   0  0  0  0  0  0  0  0  0  0  0  0
   11.7236   -9.0547    0.0000 C   0  0  0  0  0  0  0  0  0  0  0  0
   11.0054   -7.8174    0.0000 C   0  0  0  0  0  0  0  0  0  0  0  0
    4.5710   -9.0693    0.0000 C   0  0  0  0  0  0  0  0  0  0  0  0
   12.4370   -8.6375    0.0000 C   0  0  0  0  0  0  0  0  0  0  0  0
   11.7139   -7.4001    0.0000 C   0  0  0  0  0  0  0  0  0  0  0  0
    5.2844  -10.3116    0.0000 C   0  0  0  0  0  0  0  0  0  0  0  0
    4.5661   -9.8991    0.0000 C   0  0  0  0  0  0  0  0  0  0  0  0
   12.4370   -7.8125    0.0000 C   0  0  0  0  0  0  0  0  0  0  0  0
    1.3157  -13.3553    0.0000 N   0  0  0  0  0  0  0  0  0  0  0  0
    1.3108  -12.5304    0.0000 C   0  0  0  0  0  0  0  0  0  0  0  0
    0.4859  -13.3601    0.0000 C   0  0  0  0  0  0  0  0  0  0  0  0
    0.4859  -12.5304    0.0000 C   0  0  0  0  0  0  0  0  0  0  0  0
    2.1018  -13.6076    0.0000 C   0  0  0  0  0  0  0  0  0  0  0  0
    2.0969  -12.2732    0.0000 S   0  0  0  0  0  0  0  0  0  0  0  0
    2.5870  -12.9380    0.0000 C   0  0  0  0  0  0  0  0  0  0  0  0
   -0.2323  -12.1131    0.0000 N   0  0  0  0  0  0  0  0  0  0  0  0
    2.0969  -14.4277    0.0000 C   0  0  0  0  0  0  0  0  0  0  0  0
   -0.9505  -12.5304    0.0000 C   0  0  0  0  0  0  0  0  0  0  0  0
   -0.0964  -13.9424    0.0000 O   0  0  0  0  0  0  0  0  0  0  0  0
    1.3739  -14.8353    0.0000 O   0  0  0  0  0  0  0  0  0  0  0  0
   -0.9505  -13.3553    0.0000 O   0  0  0  0  0  0  0  0  0  0  0  0
   -1.6638  -12.1179    0.0000 C   0  0  0  0  0  0  0  0  0  0  0  0
    2.8053  -14.8499    0.0000 O   0  0  0  0  0  0  0  0  0  0  0  0
    3.2955  -13.3505    0.0000 C   0  0  0  0  0  0  0  0  0  0  0  0
    3.2955  -12.5207    0.0000 C   0  0  0  0  0  0  0  0  0  0  0  0
   -2.3771  -12.5304    0.0000 C   0  0  0  0  0  0  0  0  0  0  0  0
   -3.0904  -12.1131    0.0000 C   0  0  0  0  0  0  0  0  0  0  0  0
   -2.3771  -13.3456    0.0000 C   0  0  0  0  0  0  0  0  0  0  0  0
   -3.8037  -12.5255    0.0000 C   0  0  0  0  0  0  0  0  0  0  0  0
   -3.0855  -13.7629    0.0000 C   0  0  0  0  0  0  0  0  0  0  0  0
   -3.8037  -13.3505    0.0000 C   0  0  0  0  0  0  0  0  0  0  0  0
    1.3012  -11.7055    0.0000 H   0  0  0  0  0  0  0  0  0  0  0  0
    8.9571  -11.1670    0.0000 O   0  0  0  0  0  0  0  0  0  0  0  0
   10.6366  -11.1670    0.0000 O   0  0  0  0  0  0  0  0  0  0  0  0
    8.6920  -12.8170    0.0000 O   0  0  0  0  0  0  0  0  0  0  0  0
  3  2  1  0
  4  2  1  0
  5  3  1  0
  6  2  1  0
  7  3  1  0
  8  6  1  0
  5  9  1  1
  6 10  1  6
 11  9  1  0
 12  4  2  0
 13 10  2  0
 14 11  2  0
 15 11  1  0
 16 10  1  0
 17  8  1  0
 18  8  1  0
 19 15  1  0
 20 19  2  0
 21 19  1  0
 22 20  1  0
 23 21  2  0
 24 23  1  0
  3 25  1  6
  7  8  1  0
  4  5  1  0
 24 22  2  0
 27 33  1  0
 28 31  1  0
 29 30  1  0
 30 26  1  0
 31 27  1  0
 32 26  1  0
 33 32  1  0
 34 28  2  0
 35 28  1  0
 36 29  2  0
 37 29  1  0
 38 34  1  0
 39 36  1  0
 40 37  2  0
 41 35  2  0
 42 38  2  0
 43 40  1  0
 43 39  2  0
 41 42  1  0
 45 44  1  0
 46 44  1  0
 47 45  1  0
 48 44  1  0
 49 45  1  0
 50 48  1  0
 47 51  1  1
 48 52  1  6
 53 51  1  0
 54 46  2  0
 55 52  2  0
 56 53  2  0
 57 53  1  0
 58 52  1  0
 59 50  1  0
 60 50  1  0
 61 57  1  0
 62 61  2  0
 63 61  1  0
 64 62  1  0
 65 63  2  0
 66 65  1  0
 45 67  1  6
 49 50  1  0
 46 47  1  0
 66 64  2  0
M  END

> <chembl_id>
CHEMBL3989515

> <chembl_pref_name>
PENICILLIN G BENZATHINE

$$$$

     RDKit          2D

 25 26  0  0  0  0  0  0  0  0999 V2000
   14.1052   -0.3424    0.0000 Na  0  0  0  0  0 15  0  0  0  0  0  0
    2.5654   -0.9014    0.0000 C   0  0  0  0  0  0  0  0  0  0  0  0
    4.0387   -1.2480    0.0000 C   0  0  0  0  0  0  0  0  0  0  0  0
    2.9467    0.5893    0.0000 N   0  0  0  0  0  0  0  0  0  0  0  0
    4.4028    0.2427    0.0000 C   0  0  0  0  0  0  0  0  0  0  0  0
    5.1654    1.5080    0.0000 S   0  0  0  0  0  0  0  0  0  0  0  0
    4.1948    2.6347    0.0000 C   0  0  0  0  0  0  0  0  0  0  0  0
    2.8254    2.0454    0.0000 C   0  0  0  0  0  0  0  0  0  0  0  0
    4.8206   -2.5217    0.0000 N   0  0  0  0  0  0  0  0  0  0  0  0
    6.3209   -2.4823    0.0000 C   0  0  0  0  0  0  0  0  0  0  0  0
    7.1060   -3.7614    0.0000 C   0  0  0  0  0  0  0  0  0  0  0  0
    6.8931   -1.4275    0.0000 O   0  0  0  0  0  0  0  0  0  0  0  0
    8.6063   -3.7220    0.0000 C   0  0  0  0  0  0  0  0  0  0  0  0
    9.3928   -4.9993    0.0000 C   0  0  0  0  0  0  0  0  0  0  0  0
   10.8922   -4.9569    0.0000 C   0  0  0  0  0  0  0  0  0  0  0  0
   11.6052   -3.6372    0.0000 C   0  0  0  0  0  0  0  0  0  0  0  0
   10.8188   -2.3599    0.0000 C   0  0  0  0  0  0  0  0  0  0  0  0
    9.3194   -2.4023    0.0000 C   0  0  0  0  0  0  0  0  0  0  0  0
    1.5390   -1.5231    0.0000 O   0  0  0  0  0  0  0  0  0  0  0  0
    1.5388    2.8139    0.0000 C   0  0  0  0  0  0  0  0  0  0  0  0
    3.3050    3.4400    0.0000 C   0  0  0  0  0  0  0  0  0  0  0  0
    5.3472    2.9693    0.0000 C   0  0  0  0  0  0  0  0  0  0  0  0
    0.4910    2.2290    0.0000 O   0  0  0  0  0  0  0  0  0  0  0  0
    1.5558    4.0138    0.0000 O   0  0  0  0  0  0  0  0  0  0  0  0
    5.3273   -0.1384    0.0000 H   0  0  0  0  0  0  0  0  0  0  0  0
  3  5  1  0
 11 13  1  0
  4  2  1  0
 13 14  2  0
  5  6  1  0
 14 15  1  0
  6  7  1  0
 15 16  2  0
  7  8  1  0
 16 17  1  0
  8  4  1  0
 17 18  2  0
 18 13  1  0
  4  5  1  0
  2 19  2  0
  3  9  1  6
  8 20  1  1
  2  3  1  0
  7 21  1  0
  9 10  1  0
  7 22  1  0
 10 11  1  0
 20 23  1  0
 20 24  2  0
  5 25  1  1
 10 12  2  0
M  CHG  2   1   1  23  -1
M  END

> <chembl_id>
CHEMBL1126

> <chembl_pref_name>
PENICILLIN G SODIUM

$$$$

     RDKit          2D

 42 43  0  0  0  0  0  0  0  0999 V2000
    0.8375  -10.1542    0.0000 O   0  0  0  0  0  0  0  0  0  0  0  0
    3.1417   -9.1542    0.0000 N   0  0  0  0  0  0  0  0  0  0  0  0
    3.1375   -8.4500    0.0000 C   0  0  0  0  0  0  0  0  0  0  0  0
    2.4292   -9.1625    0.0000 C   0  0  0  0  0  0  0  0  0  0  0  0
    2.4292   -8.4500    0.0000 C   0  0  0  0  0  0  0  0  0  0  0  0
    3.8167   -9.3750    0.0000 C   0  0  0  0  0  0  0  0  0  0  0  0
    3.8125   -8.2292    0.0000 S   0  0  0  0  0  0  0  0  0  0  0  0
    4.2292   -8.8000    0.0000 C   0  0  0  0  0  0  0  0  0  0  0  0
    1.8125   -8.0917    0.0000 N   0  0  0  0  0  0  0  0  0  0  0  0
    3.8125  -10.0792    0.0000 C   0  0  0  0  0  0  0  0  0  0  0  0
    1.1917   -8.4500    0.0000 C   0  0  0  0  0  0  0  0  0  0  0  0
    1.9292   -9.6625    0.0000 O   0  0  0  0  0  0  0  0  0  0  0  0
    3.1917  -10.4292    0.0000 O   0  0  0  0  0  0  0  0  0  0  0  0
    1.1917   -9.1542    0.0000 O   0  0  0  0  0  0  0  0  0  0  0  0
    0.5792   -8.0917    0.0000 C   0  0  0  0  0  0  0  0  0  0  0  0
    4.4167  -10.4417    0.0000 O   0  0  0  0  0  0  0  0  0  0  0  0
    4.8417   -9.1542    0.0000 C   0  0  0  0  0  0  0  0  0  0  0  0
    4.8417   -8.4417    0.0000 C   0  0  0  0  0  0  0  0  0  0  0  0
   -0.0333   -8.4500    0.0000 C   0  0  0  0  0  0  0  0  0  0  0  0
   -0.0333   -9.1500    0.0000 C   0  0  0  0  0  0  0  0  0  0  0  0
   -0.6458   -8.0917    0.0000 C   0  0  0  0  0  0  0  0  0  0  0  0
   -1.2583   -8.4417    0.0000 C   0  0  0  0  0  0  0  0  0  0  0  0
   -0.6375   -9.5042    0.0000 C   0  0  0  0  0  0  0  0  0  0  0  0
   -1.2583   -9.1542    0.0000 C   0  0  0  0  0  0  0  0  0  0  0  0
    3.1292   -7.7417    0.0000 H   0  0  0  0  0  0  0  0  0  0  0  0
    7.9667   -8.8542    0.0000 C   0  0  0  0  0  0  0  0  0  0  0  0
    7.3667   -9.2042    0.0000 C   0  0  0  0  0  0  0  0  0  0  0  0
    7.9417   -8.1792    0.0000 O   0  0  0  0  0  0  0  0  0  0  0  0
    7.3542   -9.9667    0.0000 C   0  0  0  0  0  0  0  0  0  0  0  0
    6.7042   -8.8292    0.0000 C   0  0  0  0  0  0  0  0  0  0  0  0
    8.5667   -9.2125    0.0000 O   0  0  0  0  0  0  0  0  0  0  0  0
    6.0667   -9.9417    0.0000 C   0  0  0  0  0  0  0  0  0  0  0  0
   10.3750   -8.8625    0.0000 N   0  0  0  0  0  0  0  0  0  0  0  0
    5.4542  -10.2917    0.0000 N   0  0  0  0  0  0  0  0  0  0  0  0
    6.7125  -10.3250    0.0000 C   0  0  0  0  0  0  0  0  0  0  0  0
    6.0667   -9.1917    0.0000 C   0  0  0  0  0  0  0  0  0  0  0  0
    9.1750   -8.8667    0.0000 C   0  0  0  0  0  0  0  0  0  0  0  0
    9.7667   -9.2042    0.0000 C   0  0  0  0  0  0  0  0  0  0  0  0
   10.3542   -8.1667    0.0000 C   0  0  0  0  0  0  0  0  0  0  0  0
   10.9583   -9.2167    0.0000 C   0  0  0  0  0  0  0  0  0  0  0  0
   10.9542   -7.8125    0.0000 C   0  0  0  0  0  0  0  0  0  0  0  0
   11.5750   -8.8792    0.0000 C   0  0  0  0  0  0  0  0  0  0  0  0
  3  2  1  0
  4  2  1  0
  5  4  1  0
  6  2  1  0
  7  3  1  0
  8  6  1  0
  5  9  1  1
  6 10  1  6
 11  9  1  0
 12  4  2  0
 13 10  2  0
 14 11  2  0
 15 11  1  0
 16 10  1  0
 17  8  1  0
 18  8  1  0
 19 15  1  0
 20 19  1  0
 21 19  2  0
 22 21  1  0
 23 20  2  0
 24 22  2  0
  3 25  1  6
  7  8  1  0
  5  3  1  0
 24 23  1  0
 27 26  1  0
 28 26  2  0
 29 27  1  0
 30 27  2  0
 31 26  1  0
 32 36  2  0
 33 38  1  0
 34 32  1  0
 35 29  2  0
 36 30  1  0
 37 31  1  0
 38 37  1  0
 39 33  1  0
 40 33  1  0
 41 39  1  0
 42 40  1  0
 32 35  1  0
M  END

> <chembl_id>
CHEMBL1200936

> <chembl_pref_name>
PENICILLIN G PROCAINE

$$$$

     RDKit          2D

 29 31  0  0  0  0  0  0  0  0999 V2000
    3.0875   -8.0750    0.0000 K   0  0  0  0  0 15  0  0  0  0  0  0
   -0.2458   -5.7375    0.0000 N   0  0  0  0  0  0  0  0  0  0  0  0
    1.0833   -6.8000    0.0000 N   0  0  0  0  0  0  0  0  0  0  0  0
    0.3750   -6.0917    0.0000 C   0  0  0  0  0  0  0  0  0  0  0  0
    1.0792   -6.0917    0.0000 C   0  0  0  0  0  0  0  0  0  0  0  0
    0.3750   -6.8000    0.0000 C   0  0  0  0  0  0  0  0  0  0  0  0
   -0.4667   -5.0625    0.0000 C   0  0  0  0  0  0  0  0  0  0  0  0
   -0.8208   -6.1542    0.0000 C   0  0  0  0  0  0  0  0  0  0  0  0
    1.7583   -7.0167    0.0000 C   0  0  0  0  0  0  0  0  0  0  0  0
    1.7542   -5.8708    0.0000 S   0  0  0  0  0  0  0  0  0  0  0  0
   -1.3958   -5.7375    0.0000 N   0  0  0  0  0  0  0  0  0  0  0  0
    2.1750   -6.4417    0.0000 C   0  0  0  0  0  0  0  0  0  0  0  0
   -1.1750   -5.0625    0.0000 C   0  0  0  0  0  0  0  0  0  0  0  0
    1.7542   -7.7250    0.0000 C   0  0  0  0  0  0  0  0  0  0  0  0
   -0.1292   -7.3042    0.0000 O   0  0  0  0  0  0  0  0  0  0  0  0
   -0.0500   -4.4917    0.0000 O   0  0  0  0  0  0  0  0  0  0  0  0
    2.3625   -8.0833    0.0000 O   0  0  0  0  0  0  0  0  0  0  0  0
   -1.7958   -4.7042    0.0000 C   0  0  0  0  0  0  0  0  0  0  0  0
    1.1333   -8.0708    0.0000 O   0  0  0  0  0  0  0  0  0  0  0  0
   -0.4708   -6.7667    0.0000 C   0  0  0  0  0  0  0  0  0  0  0  0
   -1.1833   -6.7667    0.0000 C   0  0  0  0  0  0  0  0  0  0  0  0
    2.7875   -6.7917    0.0000 C   0  0  0  0  0  0  0  0  0  0  0  0
    2.7875   -6.0792    0.0000 C   0  0  0  0  0  0  0  0  0  0  0  0
   -1.7917   -3.9917    0.0000 C   0  0  0  0  0  0  0  0  0  0  0  0
   -2.4083   -5.0625    0.0000 C   0  0  0  0  0  0  0  0  0  0  0  0
   -3.0250   -4.7083    0.0000 C   0  0  0  0  0  0  0  0  0  0  0  0
   -2.4083   -3.6333    0.0000 C   0  0  0  0  0  0  0  0  0  0  0  0
   -3.0292   -3.9917    0.0000 C   0  0  0  0  0  0  0  0  0  0  0  0
    1.0750   -5.3792    0.0000 H   0  0  0  0  0  0  0  0  0  0  0  0
  3  6  1  0
  4  2  1  1
  5  4  1  0
  6  4  1  0
  7  2  1  0
  8  2  1  0
  9  3  1  0
 10  5  1  0
 11  8  1  0
 12 10  1  0
 13  7  1  0
  9 14  1  6
 15  6  2  0
 16  7  2  0
 17 14  1  0
 13 18  1  6
 19 14  2  0
 20  8  1  0
 21  8  1  0
 22 12  1  0
 23 12  1  0
 24 18  2  0
 25 18  1  0
 26 25  2  0
 27 24  1  0
 28 26  1  0
  5 29  1  6
 13 11  1  0
  3  5  1  0
 12  9  1  0
 28 27  2  0
M  CHG  2   1   1  17  -1
M  END

> <chembl_id>
CHEMBL1201121

> <chembl_pref_name>
HETACILLIN POTASSIUM

$$$$

     RDKit          2D

 26 28  0  0  1  0  0  0  0  0999 V2000
    4.2917   -2.9917    0.0000 N   0  0  0  0  0  0  0  0  0  0  0  0
    4.2917   -2.3125    0.0000 C   0  0  0  0  0  0  0  0  0  0  0  0
    3.6042   -2.9917    0.0000 C   0  0  0  0  0  0  0  0  0  0  0  0
    3.6042   -2.3125    0.0000 C   0  0  0  0  0  0  0  0  0  0  0  0
    5.4750   -2.9917    0.0000 C   0  0  0  0  0  0  0  0  0  0  0  0
    4.8792   -1.9625    0.0000 S   0  0  0  0  0  0  0  0  0  0  0  0
    5.4750   -2.3125    0.0000 C   0  0  0  0  0  0  0  0  0  0  0  0
    3.0167   -1.9667    0.0000 N   0  0  0  0  0  0  0  0  0  0  0  0
    2.4292   -2.3125    0.0000 C   0  0  0  0  0  0  0  0  0  0  0  0
    6.0375   -3.4250    0.0000 C   0  0  0  0  0  0  0  0  0  0  0  0
    1.8375   -1.9667    0.0000 C   0  0  0  0  0  0  0  0  0  0  0  0
    3.1167   -3.4792    0.0000 O   0  0  0  0  0  0  0  0  0  0  0  0
    2.4250   -2.9917    0.0000 O   0  0  0  0  0  0  0  0  0  0  0  0
    1.2417   -2.3125    0.0000 C   0  0  0  0  0  0  0  0  0  0  0  0
    6.7042   -3.0875    0.0000 O   0  0  0  0  0  0  0  0  0  0  0  0
    6.0375   -4.1250    0.0000 O   0  0  0  0  0  0  0  0  0  0  0  0
    0.6417   -1.9667    0.0000 C   0  0  0  0  0  0  0  0  0  0  0  0
    1.2417   -2.9917    0.0000 C   0  0  0  0  0  0  0  0  0  0  0  0
    1.8292   -1.2875    0.0000 N   0  0  0  0  0  0  0  0  0  0  0  0
    6.2667   -2.3125    0.0000 C   0  0  0  0  0  0  0  0  0  0  0  0
    5.4667   -1.6250    0.0000 C   0  0  0  0  0  0  0  0  0  0  0  0
    0.0542   -2.9917    0.0000 C   0  0  0  0  0  0  0  0  0  0  0  0
    0.0542   -2.3125    0.0000 C   0  0  0  0  0  0  0  0  0  0  0  0
    0.6417   -3.3375    0.0000 C   0  0  0  0  0  0  0  0  0  0  0  0
   -0.5375   -3.3375    0.0000 O   0  0  0  0  0  0  0  0  0  0  0  0
    4.2875   -1.6250    0.0000 H   0  0  0  0  0  0  0  0  0  0  0  0
  2  1  1  0
  3  1  1  0
  4  3  1  0
  5  1  1  0
  6  2  1  0
  7  5  1  0
  4  8  1  1
  9  8  1  0
  5 10  1  6
 11  9  1  0
 12  3  2  0
 13  9  2  0
 14 11  1  0
 15 10  1  0
 16 10  2  0
 17 14  2  0
 18 14  1  0
 11 19  1  1
 20  7  1  0
 21  7  1  0
 22 24  1  0
 23 17  1  0
 24 18  2  0
 25 22  1  0
  2 26  1  6
  6  7  1  0
  4  2  1  0
 22 23  2  0
M  END

> <chembl_id>
CHEMBL1082

> <chembl_pref_name>
AMOXICILLIN

$$$$

     RDKit          2D

 29 32  0  0  1  0  0  0  0  0999 V2000
    1.6042   -2.5625    0.0000 N   0  0  0  0  0  0  0  0  0  0  0  0
    1.6042   -1.8500    0.0000 C   0  0  0  0  0  0  0  0  0  0  0  0
    0.8917   -2.5625    0.0000 C   0  0  0  0  0  0  0  0  0  0  0  0
    0.8917   -1.8500    0.0000 C   0  0  0  0  0  0  0  0  0  0  0  0
   -0.9583   -1.5417    0.0000 C   0  0  0  0  0  0  0  0  0  0  0  0
    2.2792   -2.7875    0.0000 C   0  0  0  0  0  0  0  0  0  0  0  0
    2.2792   -1.6375    0.0000 S   0  0  0  0  0  0  0  0  0  0  0  0
   -0.3208   -1.8792    0.0000 C   0  0  0  0  0  0  0  0  0  0  0  0
    2.7042   -2.2125    0.0000 C   0  0  0  0  0  0  0  0  0  0  0  0
   -1.8750   -0.8542    0.0000 N   0  0  0  0  0  0  0  0  0  0  0  0
    0.2792   -1.5125    0.0000 N   0  0  0  0  0  0  0  0  0  0  0  0
   -1.1708   -0.8542    0.0000 C   0  0  0  0  0  0  0  0  0  0  0  0
   -2.0958   -1.5375    0.0000 O   0  0  0  0  0  0  0  0  0  0  0  0
   -1.5333   -1.9542    0.0000 C   0  0  0  0  0  0  0  0  0  0  0  0
    2.2875   -3.5042    0.0000 C   0  0  0  0  0  0  0  0  0  0  0  0
    0.4042   -3.0750    0.0000 O   0  0  0  0  0  0  0  0  0  0  0  0
   -0.3125   -2.5792    0.0000 O   0  0  0  0  0  0  0  0  0  0  0  0
    2.9042   -3.8542    0.0000 O   0  0  0  0  0  0  0  0  0  0  0  0
   -0.5583   -0.5000    0.0000 C   0  0  0  0  0  0  0  0  0  0  0  0
    1.6792   -3.8625    0.0000 O   0  0  0  0  0  0  0  0  0  0  0  0
    3.3167   -2.5667    0.0000 C   0  0  0  0  0  0  0  0  0  0  0  0
    3.3167   -1.8542    0.0000 C   0  0  0  0  0  0  0  0  0  0  0  0
   -1.5333   -2.6542    0.0000 C   0  0  0  0  0  0  0  0  0  0  0  0
    0.0667   -0.8542    0.0000 C   0  0  0  0  0  0  0  0  0  0  0  0
   -0.5708    0.2208    0.0000 C   0  0  0  0  0  0  0  0  0  0  0  0
    0.6667   -0.4917    0.0000 C   0  0  0  0  0  0  0  0  0  0  0  0
    0.0542    0.5708    0.0000 C   0  0  0  0  0  0  0  0  0  0  0  0
    0.6667    0.2208    0.0000 C   0  0  0  0  0  0  0  0  0  0  0  0
    1.6042   -1.1375    0.0000 H   0  0  0  0  0  0  0  0  0  0  0  0
  2  1  1  0
  3  1  1  0
  4  2  1  0
  5  8  1  0
  6  1  1  0
  7  2  1  0
  8 11  1  0
  9  6  1  0
 10 12  2  0
  4 11  1  1
 12  5  1  0
 13 14  1  0
 14  5  2  0
  6 15  1  6
 16  3  2  0
 17  8  2  0
 18 15  1  0
 19 12  1  0
 20 15  2  0
 21  9  1  0
 22  9  1  0
 23 14  1  0
 24 19  2  0
 25 19  1  0
 26 24  1  0
 27 25  2  0
 28 26  2  0
  2 29  1  6
  3  4  1  0
  9  7  1  0
 13 10  1  0
 28 27  1  0
M  END

> <chembl_id>
CHEMBL819

> <chembl_pref_name>
OXACILLIN

$$$$

     RDKit          2D

 28 28  0  0  0  0  0  0  0  0999 V2000
    6.2792   -8.0833    0.0000 Na  0  0  0  0  0 15  0  0  0  0  0  0
    2.1750   -6.2500    0.0000 N   0  0  0  0  0  0  0  0  0  0  0  0
    2.9750   -6.4625    0.0000 C   0  0  0  0  0  0  0  0  0  0  0  0
    2.3917   -5.4542    0.0000 C   0  0  0  0  0  0  0  0  0  0  0  0
    3.1875   -5.6667    0.0000 C   0  0  0  0  0  0  0  0  0  0  0  0
    1.7292   -6.9417    0.0000 C   0  0  0  0  0  0  0  0  0  0  0  0
    3.0167   -7.2875    0.0000 S   0  0  0  0  0  0  0  0  0  0  0  0
    2.2458   -7.5833    0.0000 C   0  0  0  0  0  0  0  0  0  0  0  0
    3.9000   -4.4292    0.0000 C   0  0  0  0  0  0  0  0  0  0  0  0
    3.9000   -5.2542    0.0000 N   0  0  0  0  0  0  0  0  0  0  0  0
    4.6167   -4.0167    0.0000 C   0  0  0  0  0  0  0  0  0  0  0  0
    0.9042   -6.9875    0.0000 C   0  0  0  0  0  0  0  0  0  0  0  0
    5.3292   -4.4292    0.0000 C   0  0  0  0  0  0  0  0  0  0  0  0
    4.6167   -3.1917    0.0000 C   0  0  0  0  0  0  0  0  0  0  0  0
    1.9792   -4.7375    0.0000 O   0  0  0  0  0  0  0  0  0  0  0  0
    5.0292   -1.9208    0.0000 S   0  0  0  0  0  0  0  0  0  0  0  0
    3.1875   -4.0167    0.0000 O   0  0  0  0  0  0  0  0  0  0  0  0
    5.2833   -2.7083    0.0000 C   0  0  0  0  0  0  0  0  0  0  0  0
    0.5292   -7.7208    0.0000 O   0  0  0  0  0  0  0  0  0  0  0  0
    6.0458   -4.0167    0.0000 O   0  0  0  0  0  0  0  0  0  0  0  0
    3.9500   -2.7083    0.0000 C   0  0  0  0  0  0  0  0  0  0  0  0
    4.2042   -1.9208    0.0000 C   0  0  0  0  0  0  0  0  0  0  0  0
    0.4542   -6.2958    0.0000 O   0  0  0  0  0  0  0  0  0  0  0  0
    5.3292   -5.2542    0.0000 O   0  0  0  0  0  0  0  0  0  0  0  0
    1.6708   -8.1750    0.0000 C   0  0  0  0  0  0  0  0  0  0  0  0
    2.4500   -8.3833    0.0000 C   0  0  0  0  0  0  0  0  0  0  0  0
    3.9695   -6.5675    0.0000 H   0  0  0  0  0  0  0  0  0  0  0  0
    8.2833   -5.2750    0.0000 Na  0  0  0  0  0 15  0  0  0  0  0  0
  3  2  1  0
  4  2  1  0
  5  4  1  0
  6  2  1  0
  3  7  1  0
  8  6  1  0
  9 10  1  0
  5 10  1  1
 11  9  1  1
  6 12  1  6
 13 11  1  0
 14 11  1  0
 15  4  2  0
 16 18  1  0
 17  9  2  0
 18 14  2  0
 19 12  1  0
 20 13  1  0
 21 14  1  0
 22 21  2  0
 23 12  2  0
 24 13  2  0
 25  8  1  0
 26  8  1  0
  5  3  1  0
  8  7  1  0
 22 16  1  0
  3 27  1  6
M  CHG  4   1   1  19  -1  20  -1  28   1
M  END

> <chembl_id>
CHEMBL1200855

> <chembl_pref_name>
TICARCILLIN DISODIUM

$$$$

     RDKit          2D

 25 27  0  0  1  0  0  0  0  0999 V2000
    2.0042    0.5833    0.0000 N   0  0  0  0  0  0  0  0  0  0  0  0
    1.9917   -0.4292    0.0000 C   0  0  0  0  0  0  0  0  0  0  0  0
    0.9917    0.5833    0.0000 C   0  0  0  0  0  0  0  0  0  0  0  0
    0.9917   -0.4375    0.0000 C   0  0  0  0  0  0  0  0  0  0  0  0
    2.9542    0.9000    0.0000 C   0  0  0  0  0  0  0  0  0  0  0  0
    2.9542   -0.7375    0.0000 S   0  0  0  0  0  0  0  0  0  0  0  0
    3.5542    0.0833    0.0000 C   0  0  0  0  0  0  0  0  0  0  0  0
    0.2792   -1.1375    0.0000 N   0  0  0  0  0  0  0  0  0  0  0  0
   -0.7000   -0.8500    0.0000 C   0  0  0  0  0  0  0  0  0  0  0  0
    3.2667    1.8708    0.0000 C   0  0  0  0  0  0  0  0  0  0  0  0
   -1.4208   -1.5542    0.0000 C   0  0  0  0  0  0  0  0  0  0  0  0
   -2.4000   -1.3000    0.0000 C   0  0  0  0  0  0  0  0  0  0  0  0
    0.2750    1.2958    0.0000 O   0  0  0  0  0  0  0  0  0  0  0  0
   -0.9458    0.1125    0.0000 O   0  0  0  0  0  0  0  0  0  0  0  0
    2.6000    2.6208    0.0000 O   0  0  0  0  0  0  0  0  0  0  0  0
   -3.1250   -1.9875    0.0000 C   0  0  0  0  0  0  0  0  0  0  0  0
   -3.6208   -0.0292    0.0000 C   0  0  0  0  0  0  0  0  0  0  0  0
   -4.3458   -0.7375    0.0000 C   0  0  0  0  0  0  0  0  0  0  0  0
   -1.1833   -2.5417    0.0000 N   0  0  0  0  0  0  0  0  0  0  0  0
    4.2667    2.0833    0.0000 O   0  0  0  0  0  0  0  0  0  0  0  0
    4.3042   -0.5917    0.0000 C   0  0  0  0  0  0  0  0  0  0  0  0
    4.3042    0.7583    0.0000 C   0  0  0  0  0  0  0  0  0  0  0  0
   -2.6458   -0.3167    0.0000 C   0  0  0  0  0  0  0  0  0  0  0  0
   -4.1083   -1.7250    0.0000 C   0  0  0  0  0  0  0  0  0  0  0  0
    2.0250   -1.4417    0.0000 H   0  0  0  0  0  0  0  0  0  0  0  0
  2  1  1  0
  3  1  1  0
  4  3  1  0
  5  1  1  0
  6  2  1  0
  7  5  1  0
  4  8  1  6
  9  8  1  0
  5 10  1  1
 11  9  1  0
 12 11  1  0
 13  3  2  0
 14  9  2  0
 15 10  2  0
 16 12  2  0
 17 23  1  0
 18 17  2  0
 11 19  1  6
 20 10  1  0
 21  7  1  0
 22  7  1  0
 23 12  1  0
 24 16  1  0
  2 25  1  1
  6  7  1  0
  2  4  1  0
 24 18  1  0
M  END

> <chembl_id>
CHEMBL2104266

> <chembl_pref_name>
EPICILLIN

$$$$

     RDKit          2D

 28 28  0  0  0  0  0  0  0  0999 V2000
    7.5429   -2.2982    0.0000 O   0  0  0  0  0  0  0  0  0  0  0  0
    2.6098   -1.6784    0.0000 N   0  0  0  0  0  0  0  0  0  0  0  0
    2.6195   -0.8586    0.0000 C   0  0  0  0  0  0  0  0  0  0  0  0
    1.7900   -1.6784    0.0000 C   0  0  0  0  0  0  0  0  0  0  0  0
    1.7900   -0.8586    0.0000 C   0  0  0  0  0  0  0  0  0  0  0  0
    3.3957   -1.9355    0.0000 C   0  0  0  0  0  0  0  0  0  0  0  0
    3.3957   -0.6015    0.0000 S   0  0  0  0  0  0  0  0  0  0  0  0
    3.8856   -1.2710    0.0000 C   0  0  0  0  0  0  0  0  0  0  0  0
    0.3542   -0.8489    0.0000 C   0  0  0  0  0  0  0  0  0  0  0  0
    1.0672   -0.4415    0.0000 N   0  0  0  0  0  0  0  0  0  0  0  0
   -0.3589   -0.4415    0.0000 C   0  0  0  0  0  0  0  0  0  0  0  0
    3.3957   -2.7553    0.0000 C   0  0  0  0  0  0  0  0  0  0  0  0
   -1.0720   -0.8489    0.0000 C   0  0  0  0  0  0  0  0  0  0  0  0
   -0.3589    0.3880    0.0000 C   0  0  0  0  0  0  0  0  0  0  0  0
    1.2079   -2.2606    0.0000 O   0  0  0  0  0  0  0  0  0  0  0  0
   -2.4109   -0.8489    0.0000 S   0  0  0  0  0  0  0  0  0  0  0  0
    0.3542   -1.6784    0.0000 O   0  0  0  0  0  0  0  0  0  0  0  0
   -1.7414   -0.3638    0.0000 C   0  0  0  0  0  0  0  0  0  0  0  0
    4.1039   -3.1774    0.0000 O   0  0  0  0  0  0  0  0  0  0  0  0
   -1.3340   -1.6348    0.0000 C   0  0  0  0  0  0  0  0  0  0  0  0
   -2.1538   -1.6348    0.0000 C   0  0  0  0  0  0  0  0  0  0  0  0
    2.6680   -3.1628    0.0000 O   0  0  0  0  0  0  0  0  0  0  0  0
   -1.0720    0.7955    0.0000 O   0  0  0  0  0  0  0  0  0  0  0  0
    0.3542    0.7955    0.0000 O   0  0  0  0  0  0  0  0  0  0  0  0
    4.5986   -0.8489    0.0000 C   0  0  0  0  0  0  0  0  0  0  0  0
    4.5986   -1.6784    0.0000 C   0  0  0  0  0  0  0  0  0  0  0  0
    2.6098   -0.0291    0.0000 H   0  0  0  0  0  0  0  0  0  0  0  0
    5.3021   -3.3083    0.0000 Na  0  0  0  0  0 15  0  0  0  0  0  0
  3  2  1  0
  4  2  1  0
  5  4  1  0
  6  2  1  0
  7  3  1  0
  8  6  1  0
  9 10  1  0
  5 10  1  1
 11  9  1  0
  6 12  1  6
 13 11  1  0
 11 14  1  1
 15  4  2  0
 16 18  1  0
 17  9  2  0
 18 13  2  0
 19 12  1  0
 20 13  1  0
 21 20  2  0
 22 12  2  0
 23 14  2  0
 24 14  1  0
 25  8  1  0
 26  8  1  0
  3 27  1  6
  7  8  1  0
  5  3  1  0
 21 16  1  0
M  CHG  2  19  -1  28   1
M  END

> <chembl_id>
CHEMBL3989647

> <chembl_pref_name>
TICARCILLIN MONOSODIUM

$$$$

     RDKit          2D

 43 47  0  0  1  0  0  0  0  0999 V2000
   11.3527   -1.4631    0.0000 S   0  0  0  0  0  0  0  0  0  0  0  0
    7.3969   -1.4089    0.0000 S   0  0  0  0  0  0  0  0  0  0  0  0
   11.4204   -0.5961    0.0000 O   0  0  0  0  0  0  0  0  0  0  0  0
   10.6753   -0.9619    0.0000 O   0  0  0  0  0  0  0  0  0  0  0  0
    5.2157   -3.1024    0.0000 O   0  0  0  0  0  0  0  0  0  0  0  0
   13.5474   -3.1295    0.0000 O   0  0  0  0  0  0  0  0  0  0  0  0
   10.3096   -3.7662    0.0000 O   0  0  0  0  0  0  0  0  0  0  0  0
    8.5077   -3.7255    0.0000 O   0  0  0  0  0  0  0  0  0  0  0  0
   11.6507   -4.1861    0.0000 O   0  0  0  0  0  0  0  0  0  0  0  0
    7.1124   -4.1861    0.0000 O   0  0  0  0  0  0  0  0  0  0  0  0
    4.0507   -0.3522    0.0000 O   0  0  0  0  0  0  0  0  0  0  0  0
    6.6247   -2.5198    0.0000 N   0  0  0  0  0  0  0  0  0  0  0  0
   12.1385   -2.5333    0.0000 N   0  0  0  0  0  0  0  0  0  0  0  0
    4.7551   -1.6664    0.0000 N   0  0  0  0  0  0  0  0  0  0  0  0
    3.3462   -2.4250    0.0000 N   0  0  0  0  0  0  0  0  0  0  0  0
    6.6247   -1.7070    0.0000 C   0  0  0  0  0  0  0  0  0  0  0  0
    5.8253   -1.7070    0.0000 C   0  0  0  0  0  0  0  0  0  0  0  0
   12.1385   -1.7070    0.0000 C   0  0  0  0  0  0  0  0  0  0  0  0
   10.8514   -2.1270    0.0000 C   0  0  0  0  0  0  0  0  0  0  0  0
    5.8253   -2.5198    0.0000 C   0  0  0  0  0  0  0  0  0  0  0  0
   11.3527   -2.7772    0.0000 C   0  0  0  0  0  0  0  0  0  0  0  0
    7.3969   -2.7772    0.0000 C   0  0  0  0  0  0  0  0  0  0  0  0
    7.8981   -2.1134    0.0000 C   0  0  0  0  0  0  0  0  0  0  0  0
   12.9649   -2.5333    0.0000 C   0  0  0  0  0  0  0  0  0  0  0  0
   12.9649   -1.7070    0.0000 C   0  0  0  0  0  0  0  0  0  0  0  0
   11.1089   -3.5630    0.0000 C   0  0  0  0  0  0  0  0  0  0  0  0
    7.6949   -3.5630    0.0000 C   0  0  0  0  0  0  0  0  0  0  0  0
   10.1741   -1.7070    0.0000 C   0  0  0  0  0  0  0  0  0  0  0  0
   10.1741   -2.5333    0.0000 C   0  0  0  0  0  0  0  0  0  0  0  0
    8.6296   -1.7070    0.0000 C   0  0  0  0  0  0  0  0  0  0  0  0
    8.6296   -2.5198    0.0000 C   0  0  0  0  0  0  0  0  0  0  0  0
    4.0507   -1.2057    0.0000 C   0  0  0  0  0  0  0  0  0  0  0  0
    9.3477   -3.2378    0.0000 C   0  0  0  0  0  0  0  0  0  0  0  0
    3.3462   -1.6121    0.0000 C   0  0  0  0  0  0  0  0  0  0  0  0
    2.6282   -1.2057    0.0000 C   0  0  0  0  0  0  0  0  0  0  0  0
    1.9102   -1.6121    0.0000 C   0  0  0  0  0  0  0  0  0  0  0  0
    2.6282   -0.3522    0.0000 C   0  0  0  0  0  0  0  0  0  0  0  0
    1.2057   -1.2057    0.0000 C   0  0  0  0  0  0  0  0  0  0  0  0
    1.9102    0.0000    0.0000 C   0  0  0  0  0  0  0  0  0  0  0  0
    1.2057   -0.3522    0.0000 C   0  0  0  0  0  0  0  0  0  0  0  0
    6.6247   -0.8670    0.0000 H   0  0  0  0  0  0  0  0  0  0  0  0
    5.8253   -0.8670    0.0000 H   0  0  0  0  0  0  0  0  0  0  0  0
   12.1385   -0.8670    0.0000 H   0  0  0  0  0  0  0  0  0  0  0  0
  1  3  2  0
  1  4  2  0
  1 18  1  0
  1 19  1  0
  2 16  1  0
  2 23  1  0
  5 20  2  0
  6 24  2  0
  7 26  1  0
  7 33  1  0
  8 27  1  0
  8 33  1  0
  9 26  2  0
 10 27  2  0
 11 32  2  0
 12 16  1  0
 12 20  1  0
 12 22  1  0
 13 18  1  0
 13 21  1  0
 13 24  1  0
 17 14  1  1
 14 32  1  0
 34 15  1  6
 16 17  1  0
 16 41  1  6
 17 20  1  0
 17 42  1  6
 18 25  1  0
 18 43  1  1
 19 21  1  0
 19 28  1  0
 19 29  1  0
 21 26  1  1
 22 23  1  0
 22 27  1  6
 23 30  1  0
 23 31  1  0
 24 25  1  0
 32 34  1  0
 34 35  1  0
 35 36  2  0
 35 37  1  0
 36 38  1  0
 37 39  2  0
 38 40  2  0
 39 40  1  0
M  END

> <chembl_id>
CHEMBL506110

> <chembl_pref_name>
SULTAMICILLIN

$$$$

     RDKit          2D

 33 34  0  0  0  0  0  0  0  0999 V2000
    3.2125   -6.7500    0.0000 O   0  0  0  0  0  0  0  0  0  0  0  0
    5.3375   -5.5792    0.0000 N   0  0  0  0  0  0  0  0  0  0  0  0
    5.3375   -4.8750    0.0000 C   0  0  0  0  0  0  0  0  0  0  0  0
    4.6250   -5.5792    0.0000 C   0  0  0  0  0  0  0  0  0  0  0  0
    4.6250   -4.8750    0.0000 C   0  0  0  0  0  0  0  0  0  0  0  0
    2.5792   -3.8417    0.0000 C   0  0  0  0  0  0  0  0  0  0  0  0
    2.7875   -4.5167    0.0000 C   0  0  0  0  0  0  0  0  0  0  0  0
    6.0125   -5.8042    0.0000 C   0  0  0  0  0  0  0  0  0  0  0  0
    6.0125   -4.6542    0.0000 S   0  0  0  0  0  0  0  0  0  0  0  0
    3.4042   -4.8667    0.0000 C   0  0  0  0  0  0  0  0  0  0  0  0
    1.8625   -3.8375    0.0000 N   0  0  0  0  0  0  0  0  0  0  0  0
    6.4292   -5.2375    0.0000 C   0  0  0  0  0  0  0  0  0  0  0  0
    4.0250   -4.5292    0.0000 N   0  0  0  0  0  0  0  0  0  0  0  0
    2.9292   -3.2250    0.0000 C   0  0  0  0  0  0  0  0  0  0  0  0
    1.6500   -4.5083    0.0000 O   0  0  0  0  0  0  0  0  0  0  0  0
    2.2167   -4.9417    0.0000 C   0  0  0  0  0  0  0  0  0  0  0  0
    6.0292   -6.5167    0.0000 C   0  0  0  0  0  0  0  0  0  0  0  0
    4.1417   -6.0917    0.0000 O   0  0  0  0  0  0  0  0  0  0  0  0
    3.6417   -3.2250    0.0000 C   0  0  0  0  0  0  0  0  0  0  0  0
    2.5792   -2.6167    0.0000 C   0  0  0  0  0  0  0  0  0  0  0  0
    3.4000   -5.5750    0.0000 O   0  0  0  0  0  0  0  0  0  0  0  0
    6.6542   -6.8542    0.0000 O   0  0  0  0  0  0  0  0  0  0  0  0
    5.4292   -6.8875    0.0000 O   0  0  0  0  0  0  0  0  0  0  0  0
    4.0000   -3.8417    0.0000 Cl  0  0  0  0  0  0  0  0  0  0  0  0
    1.8667   -2.6042    0.0000 Cl  0  0  0  0  0  0  0  0  0  0  0  0
    6.9542   -4.7542    0.0000 C   0  0  0  0  0  0  0  0  0  0  0  0
    6.9542   -5.7042    0.0000 C   0  0  0  0  0  0  0  0  0  0  0  0
    2.2125   -5.6375    0.0000 C   0  0  0  0  0  0  0  0  0  0  0  0
    3.6375   -2.0042    0.0000 C   0  0  0  0  0  0  0  0  0  0  0  0
    3.9875   -2.6167    0.0000 C   0  0  0  0  0  0  0  0  0  0  0  0
    2.9292   -2.0000    0.0000 C   0  0  0  0  0  0  0  0  0  0  0  0
    5.3292   -4.1667    0.0000 H   0  0  0  0  0  0  0  0  0  0  0  0
    7.3667   -6.9042    0.0000 Na  0  0  0  0  0 15  0  0  0  0  0  0
  3  2  1  0
  4  2  1  0
  5  4  1  0
  6  7  1  0
  7 10  1  0
  8  2  1  0
  9  3  1  0
 10 13  1  0
 11  6  2  0
 12  8  1  0
  5 13  1  1
 14  6  1  0
 15 16  1  0
 16  7  2  0
  8 17  1  6
 18  4  2  0
 19 14  2  0
 20 14  1  0
 21 10  2  0
 22 17  1  0
 23 17  2  0
 24 19  1  0
 25 20  1  0
 26 12  1  0
 27 12  1  0
 28 16  1  0
 29 31  1  0
 30 19  1  0
 31 20  2  0
  3 32  1  6
 12  9  1  0
  5  3  1  0
 15 11  1  0
 29 30  2  0
M  CHG  2  22  -1  33   1
M  END

> <chembl_id>
CHEMBL1200701

> <chembl_pref_name>
DICLOXACILLIN SODIUM

$$$$

     RDKit          2D

 27 29  0  0  1  0  0  0  0  0999 V2000
   -1.7625    0.6000    0.0000 N   0  0  0  0  0  0  0  0  0  0  0  0
   -1.4750   -0.3250    0.0000 C   0  0  0  0  0  0  0  0  0  0  0  0
   -0.8708    0.8958    0.0000 C   0  0  0  0  0  0  0  0  0  0  0  0
   -0.5750   -0.0292    0.0000 C   0  0  0  0  0  0  0  0  0  0  0  0
   -2.6958    0.6000    0.0000 C   0  0  0  0  0  0  0  0  0  0  0  0
   -2.2458   -0.8542    0.0000 S   0  0  0  0  0  0  0  0  0  0  0  0
   -2.9833   -0.2667    0.0000 C   0  0  0  0  0  0  0  0  0  0  0  0
    0.2917   -0.4542    0.0000 N   0  0  0  0  0  0  0  0  0  0  0  0
    1.0875    0.0750    0.0000 C   0  0  0  0  0  0  0  0  0  0  0  0
    2.8292   -1.7542    0.0000 N   0  0  0  0  0  0  0  0  0  0  0  0
    1.9375   -0.3792    0.0000 C   0  0  0  0  0  0  0  0  0  0  0  0
   -3.2500    1.3958    0.0000 C   0  0  0  0  0  0  0  0  0  0  0  0
    3.7042   -2.1750    0.0000 N   0  0  0  0  0  0  0  0  0  0  0  0
    1.9500   -1.3417    0.0000 N   0  0  0  0  0  0  0  0  0  0  0  0
   -0.4208    1.7458    0.0000 O   0  0  0  0  0  0  0  0  0  0  0  0
    1.0875    1.0125    0.0000 O   0  0  0  0  0  0  0  0  0  0  0  0
    2.7292    0.1500    0.0000 C   0  0  0  0  0  0  0  0  0  0  0  0
   -4.2250    1.3958    0.0000 O   0  0  0  0  0  0  0  0  0  0  0  0
   -2.8500    2.2458    0.0000 O   0  0  0  0  0  0  0  0  0  0  0  0
   -3.9375   -0.1375    0.0000 C   0  0  0  0  0  0  0  0  0  0  0  0
   -3.5625   -1.0375    0.0000 C   0  0  0  0  0  0  0  0  0  0  0  0
    2.7167    1.1083    0.0000 C   0  0  0  0  0  0  0  0  0  0  0  0
    3.5792   -0.3000    0.0000 C   0  0  0  0  0  0  0  0  0  0  0  0
    4.3417    0.2583    0.0000 C   0  0  0  0  0  0  0  0  0  0  0  0
    3.4417    1.6333    0.0000 C   0  0  0  0  0  0  0  0  0  0  0  0
    4.3417    1.1583    0.0000 C   0  0  0  0  0  0  0  0  0  0  0  0
   -1.0583   -1.1750    0.0000 H   0  0  0  0  0  0  0  0  0  0  0  0
  2  1  1  0
  3  1  1  0
  4  3  1  0
  5  1  1  0
  6  2  1  0
  7  5  1  0
  4  8  1  1
  9  8  1  0
 10 14  2  0
 11  9  1  0
  5 12  1  6
 13 10  2  0
 11 14  1  1
 15  3  2  0
 16  9  2  0
 17 11  1  0
 18 12  2  0
 19 12  1  0
 20  7  1  0
 21  7  1  0
 22 17  2  0
 23 17  1  0
 24 23  2  0
 25 22  1  0
 26 24  1  0
  2 27  1  6
  6  7  1  0
  2  4  1  0
 25 26  2  0
M  CHG  2  10   1  13  -1
M  END

> <chembl_id>
CHEMBL2105907

> <chembl_pref_name>
AZIDOCILLIN

$$$$

     RDKit          2D

 26 28  0  0  0  0  0  0  0  0999 V2000
    0.1226    1.3788    0.0000 C   0  0  0  0  0  0  0  0  0  0  0  0
   -0.7024    1.3788    0.0000 C   0  0  0  0  0  0  0  0  0  0  0  0
   -0.7024    0.5538    0.0000 C   0  0  0  0  0  0  0  0  0  0  0  0
    0.1226    0.5538    0.0000 N   0  0  0  0  0  0  0  0  0  0  0  0
    0.9072    0.2989    0.0000 C   0  0  0  0  0  0  0  0  0  0  0  0
    1.3921    0.9663    0.0000 C   0  0  0  0  0  0  0  0  0  0  0  0
    0.9072    1.6337    0.0000 S   0  0  0  0  0  0  0  0  0  0  0  0
   -1.2858    1.9622    0.0000 N   0  0  0  0  0  0  0  0  0  0  0  0
   -1.2858   -0.0295    0.0000 O   0  0  0  0  0  0  0  0  0  0  0  0
    1.1621   -0.4857    0.0000 C   0  0  0  0  0  0  0  0  0  0  0  0
    1.9691   -0.6573    0.0000 O   0  0  0  0  0  0  0  0  0  0  0  0
    0.6100   -1.0988    0.0000 O   0  0  0  0  0  0  0  0  0  0  0  0
    1.9755    1.5497    0.0000 C   0  0  0  0  0  0  0  0  0  0  0  0
    2.1066    0.5538    0.0000 C   0  0  0  0  0  0  0  0  0  0  0  0
    0.1226    2.2038    0.0000 H   0  0  0  0  0  0  0  0  0  0  0  0
   -2.0827    1.7487    0.0000 C   0  0  0  0  0  0  0  0  0  0  0  0
   -2.6660    2.3320    0.0000 C   0  0  0  0  0  0  0  0  0  0  0  0
   -2.2962    0.9518    0.0000 O   0  0  0  0  0  0  0  0  0  0  0  0
   -3.4629    2.1185    0.0000 O   0  0  0  0  0  0  0  0  0  0  0  0
   -2.4525    3.1289    0.0000 C   0  0  0  0  0  0  0  0  0  0  0  0
   -4.0463    2.7019    0.0000 C   0  0  0  0  0  0  0  0  0  0  0  0
   -3.8327    3.4988    0.0000 C   0  0  0  0  0  0  0  0  0  0  0  0
   -4.4161    4.0822    0.0000 C   0  0  0  0  0  0  0  0  0  0  0  0
   -5.2130    3.8686    0.0000 C   0  0  0  0  0  0  0  0  0  0  0  0
   -5.4265    3.0717    0.0000 C   0  0  0  0  0  0  0  0  0  0  0  0
   -4.8432    2.4883    0.0000 C   0  0  0  0  0  0  0  0  0  0  0  0
  1  2  1  0
  2  3  1  0
  3  4  1  0
  4  5  1  0
  1  4  1  0
  1  7  1  0
  5  6  1  0
  6  7  1  0
  2  8  1  1
  3  9  2  0
  5 10  1  6
 10 11  1  0
 10 12  2  0
  6 13  1  0
  6 14  1  0
  1 15  1  6
  8 16  1  0
 16 17  1  0
 16 18  2  0
 17 19  1  0
 17 20  1  0
 19 21  1  0
 21 22  1  0
 21 26  2  0
 22 23  2  0
 23 24  1  0
 24 25  2  0
 25 26  1  0
M  END

> <chembl_id>
CHEMBL1614637

> <chembl_pref_name>
PHENETHICILLIN

$$$$

     RDKit          2D

 41 43  0  0  0  0  0  0  0  0999 V2000
    7.9667   -8.8542    0.0000 C   0  0  0  0  0  0  0  0  0  0  0  0
    7.3667   -9.2042    0.0000 C   0  0  0  0  0  0  0  0  0  0  0  0
    7.9417   -8.1792    0.0000 O   0  0  0  0  0  0  0  0  0  0  0  0
    7.3542   -9.9667    0.0000 C   0  0  0  0  0  0  0  0  0  0  0  0
    6.7042   -8.8292    0.0000 C   0  0  0  0  0  0  0  0  0  0  0  0
    8.5667   -9.2125    0.0000 O   0  0  0  0  0  0  0  0  0  0  0  0
    6.0667   -9.9417    0.0000 C   0  0  0  0  0  0  0  0  0  0  0  0
   10.3750   -8.8625    0.0000 N   0  0  0  0  0  0  0  0  0  0  0  0
    5.4542  -10.2917    0.0000 N   0  0  0  0  0  0  0  0  0  0  0  0
    6.7125  -10.3250    0.0000 C   0  0  0  0  0  0  0  0  0  0  0  0
    6.0667   -9.1917    0.0000 C   0  0  0  0  0  0  0  0  0  0  0  0
    9.1750   -8.8667    0.0000 C   0  0  0  0  0  0  0  0  0  0  0  0
    9.7667   -9.2042    0.0000 C   0  0  0  0  0  0  0  0  0  0  0  0
   10.3542   -8.1667    0.0000 C   0  0  0  0  0  0  0  0  0  0  0  0
   10.9583   -9.2167    0.0000 C   0  0  0  0  0  0  0  0  0  0  0  0
   10.9542   -7.8125    0.0000 C   0  0  0  0  0  0  0  0  0  0  0  0
   11.5750   -8.8792    0.0000 C   0  0  0  0  0  0  0  0  0  0  0  0
    3.1417   -9.1542    0.0000 N   0  0  0  0  0  0  0  0  0  0  0  0
    3.1375   -8.4500    0.0000 C   0  0  0  0  0  0  0  0  0  0  0  0
    2.4292   -9.1625    0.0000 C   0  0  0  0  0  0  0  0  0  0  0  0
    2.4292   -8.4500    0.0000 C   0  0  0  0  0  0  0  0  0  0  0  0
    3.8167   -9.3750    0.0000 C   0  0  0  0  0  0  0  0  0  0  0  0
    3.8125   -8.2292    0.0000 S   0  0  0  0  0  0  0  0  0  0  0  0
    4.2292   -8.8000    0.0000 C   0  0  0  0  0  0  0  0  0  0  0  0
    1.8125   -8.0917    0.0000 N   0  0  0  0  0  0  0  0  0  0  0  0
    3.8125  -10.0792    0.0000 C   0  0  0  0  0  0  0  0  0  0  0  0
    1.1917   -8.4500    0.0000 C   0  0  0  0  0  0  0  0  0  0  0  0
    1.9292   -9.6625    0.0000 O   0  0  0  0  0  0  0  0  0  0  0  0
    3.1917  -10.4292    0.0000 O   0  0  0  0  0  0  0  0  0  0  0  0
    1.1917   -9.1542    0.0000 O   0  0  0  0  0  0  0  0  0  0  0  0
    0.5792   -8.0917    0.0000 C   0  0  0  0  0  0  0  0  0  0  0  0
    4.4167  -10.4417    0.0000 O   0  0  0  0  0  0  0  0  0  0  0  0
    4.8417   -9.1542    0.0000 C   0  0  0  0  0  0  0  0  0  0  0  0
    4.8417   -8.4417    0.0000 C   0  0  0  0  0  0  0  0  0  0  0  0
   -0.0333   -8.4500    0.0000 C   0  0  0  0  0  0  0  0  0  0  0  0
   -0.0333   -9.1500    0.0000 C   0  0  0  0  0  0  0  0  0  0  0  0
   -0.6458   -8.0917    0.0000 C   0  0  0  0  0  0  0  0  0  0  0  0
   -1.2583   -8.4417    0.0000 C   0  0  0  0  0  0  0  0  0  0  0  0
   -0.6375   -9.5042    0.0000 C   0  0  0  0  0  0  0  0  0  0  0  0
   -1.2583   -9.1542    0.0000 C   0  0  0  0  0  0  0  0  0  0  0  0
    3.1292   -7.7417    0.0000 H   0  0  0  0  0  0  0  0  0  0  0  0
  2  1  1  0
  3  1  2  0
  4  2  1  0
  5  2  2  0
  6  1  1  0
  7 11  2  0
  8 13  1  0
  9  7  1  0
 10  4  2  0
 11  5  1  0
 12  6  1  0
 13 12  1  0
 14  8  1  0
 15  8  1  0
 16 14  1  0
 17 15  1  0
  7 10  1  0
 19 18  1  0
 20 18  1  0
 21 20  1  0
 22 18  1  0
 23 19  1  0
 24 22  1  0
 21 25  1  1
 22 26  1  6
 27 25  1  0
 28 20  2  0
 29 26  2  0
 30 27  2  0
 31 27  1  0
 32 26  1  0
 33 24  1  0
 34 24  1  0
 35 31  1  0
 36 35  1  0
 37 35  2  0
 38 37  1  0
 39 36  2  0
 40 38  2  0
 19 41  1  6
 23 24  1  0
 21 19  1  0
 40 39  1  0
M  END

> <chembl_id>
CHEMBL1628385

> <chembl_pref_name>
PROCAINE BENZYLPENICILLIN

$$$$

     RDKit          2D

 15 16  0  0  1  0  0  0  0  0999 V2000
    0.2455   -2.1211    0.0000 C   0  0  0  0  0  0  0  0  0  0  0  0
    0.7500   -1.0323    0.0000 C   0  0  0  0  0  0  0  0  0  0  0  0
    1.9414   -0.8892    0.0000 C   0  0  0  0  0  0  0  0  0  0  0  0
    1.2135    0.3943    0.0000 C   0  0  0  0  0  0  0  0  0  0  0  0
    0.0000    1.2760    0.0000 N   0  0  0  0  0  0  0  0  0  0  0  0
   -1.2135    0.3943    0.0000 C   0  0  0  0  0  0  0  0  0  0  0  0
   -2.0931    1.6049    0.0000 C   0  0  0  0  0  0  0  0  0  0  0  0
   -0.8796    2.4866    0.0000 C   0  0  0  0  0  0  0  0  0  0  0  0
   -0.6918    3.6718    0.0000 O   0  0  0  0  0  0  0  0  0  0  0  0
   -0.7500   -1.0323    0.0000 S   0  0  0  0  0  0  0  0  0  0  0  0
   -0.2455   -2.1211    0.0000 O   0  0  0  0  0  0  0  0  0  0  0  0
   -1.9414   -0.8892    0.0000 O   0  0  0  0  0  0  0  0  0  0  0  0
    2.6394    0.8543    0.0000 C   0  0  0  0  0  0  0  0  0  0  0  0
    3.5300    0.0501    0.0000 O   0  0  0  0  0  0  0  0  0  0  0  0
    2.8910    2.0277    0.0000 O   0  0  0  0  0  0  0  0  0  0  0  0
  1  2  1  0
  2  3  1  0
  2  4  1  0
  4  5  1  0
  5  6  1  0
  6  7  1  6
  7  8  1  0
  8  5  1  0
  8  9  2  0
  6 10  1  0
 10  2  1  0
 10 11  2  0
 10 12  2  0
  4 13  1  1
 13 14  2  0
 13 15  1  0
M  END

> <chembl_id>
CHEMBL403

> <chembl_pref_name>
SULBACTAM

$$$$

     RDKit          2D

 33 34  0  0  0  0  0  0  0  0999 V2000
    3.5357   -1.4732    0.0000 O   0  0  0  0  0  0  0  0  0  0  0  0
    0.4197    1.6462    0.0000 N   0  0  0  0  0  0  0  0  0  0  0  0
    0.4197    0.8212    0.0000 C   0  0  0  0  0  0  0  0  0  0  0  0
   -0.4053    1.6462    0.0000 C   0  0  0  0  0  0  0  0  0  0  0  0
   -0.4053    0.8212    0.0000 C   0  0  0  0  0  0  0  0  0  0  0  0
   -1.3585   -1.1424    0.0000 C   0  0  0  0  0  0  0  0  0  0  0  0
    1.2043    1.9012    0.0000 C   0  0  0  0  0  0  0  0  0  0  0  0
    1.2043    0.5663    0.0000 S   0  0  0  0  0  0  0  0  0  0  0  0
   -0.7751   -0.5590    0.0000 C   0  0  0  0  0  0  0  0  0  0  0  0
    1.6892    1.2337    0.0000 C   0  0  0  0  0  0  0  0  0  0  0  0
   -1.9645   -2.3318    0.0000 N   0  0  0  0  0  0  0  0  0  0  0  0
   -0.9887    0.2379    0.0000 N   0  0  0  0  0  0  0  0  0  0  0  0
   -1.2294   -1.9572    0.0000 C   0  0  0  0  0  0  0  0  0  0  0  0
   -2.5479   -1.7484    0.0000 O   0  0  0  0  0  0  0  0  0  0  0  0
   -2.1734   -1.0133    0.0000 C   0  0  0  0  0  0  0  0  0  0  0  0
    1.4593    2.6858    0.0000 C   0  0  0  0  0  0  0  0  0  0  0  0
   -0.9887    2.2296    0.0000 O   0  0  0  0  0  0  0  0  0  0  0  0
    0.0217   -0.7726    0.0000 O   0  0  0  0  0  0  0  0  0  0  0  0
    2.2662    2.8573    0.0000 O   0  0  0  0  0  0  0  0  0  0  0  0
   -0.4944   -2.3318    0.0000 C   0  0  0  0  0  0  0  0  0  0  0  0
    0.9072    3.2989    0.0000 O   0  0  0  0  0  0  0  0  0  0  0  0
    2.3023    1.7858    0.0000 C   0  0  0  0  0  0  0  0  0  0  0  0
    2.3023    0.6817    0.0000 C   0  0  0  0  0  0  0  0  0  0  0  0
   -2.5479   -0.2782    0.0000 C   0  0  0  0  0  0  0  0  0  0  0  0
   -0.4512   -3.1556    0.0000 C   0  0  0  0  0  0  0  0  0  0  0  0
    0.1975   -1.8824    0.0000 C   0  0  0  0  0  0  0  0  0  0  0  0
    0.9326   -2.2570    0.0000 C   0  0  0  0  0  0  0  0  0  0  0  0
    0.2839   -3.5302    0.0000 C   0  0  0  0  0  0  0  0  0  0  0  0
    0.9758   -3.0809    0.0000 C   0  0  0  0  0  0  0  0  0  0  0  0
    0.6210    2.4845    0.0000 H   0  0  0  0  0  0  0  0  0  0  0  0
    0.2906    0.0064    0.0000 H   0  0  0  0  0  0  0  0  0  0  0  0
   -1.1675    1.1369    0.0000 H   0  0  0  0  0  0  0  0  0  0  0  0
    4.5416    0.0000    0.0000 Na  0  0  0  0  0 15  0  0  0  0  0  0
  3  2  1  0
  4  2  1  0
  5  4  1  0
  6  9  1  0
  7  2  1  0
  8  3  1  0
  9 12  1  0
 10  7  1  0
 11 13  2  0
  5 12  1  6
 13  6  1  0
 14 15  1  0
 15  6  2  0
  7 16  1  1
 17  4  2  0
 18  9  2  0
 19 16  1  0
 20 13  1  0
 21 16  2  0
 10 22  1  0
 10 23  1  0
 24 15  1  0
 25 20  1  0
 26 20  2  0
 27 26  1  0
 28 25  2  0
 29 28  1  0
  7 30  1  6
  3 31  1  1
  5 32  1  1
 10  8  1  0
  3  5  1  0
 11 14  1  0
 27 29  2  0
M  CHG  2  19  -1  33   1
M  END

> <chembl_id>
CHEMBL3989567

> <chembl_pref_name>
OXACILLIN SODIUM

$$$$

     RDKit          2D

 29 29  0  0  0  0  0  0  0  0999 V2000
   -1.0250   -2.5542    0.0000 Na  0  0  0  0  0 15  0  0  0  0  0  0
    2.3625   -3.5292    0.0000 N   0  0  0  0  0  0  0  0  0  0  0  0
    2.5750   -4.3292    0.0000 C   0  0  0  0  0  0  0  0  0  0  0  0
    3.1583   -3.3167    0.0000 C   0  0  0  0  0  0  0  0  0  0  0  0
    3.3750   -4.1125    0.0000 C   0  0  0  0  0  0  0  0  0  0  0  0
    1.5375   -3.4875    0.0000 C   0  0  0  0  0  0  0  0  0  0  0  0
    1.8833   -4.7792    0.0000 S   0  0  0  0  0  0  0  0  0  0  0  0
    1.2458   -4.2583    0.0000 C   0  0  0  0  0  0  0  0  0  0  0  0
    4.0875   -5.3500    0.0000 C   0  0  0  0  0  0  0  0  0  0  0  0
    4.0875   -4.5250    0.0000 N   0  0  0  0  0  0  0  0  0  0  0  0
    4.8042   -5.7625    0.0000 C   0  0  0  0  0  0  0  0  0  0  0  0
    1.0917   -2.7958    0.0000 C   0  0  0  0  0  0  0  0  0  0  0  0
    5.5167   -5.3500    0.0000 C   0  0  0  0  0  0  0  0  0  0  0  0
    3.5708   -2.6042    0.0000 O   0  0  0  0  0  0  0  0  0  0  0  0
    3.3750   -5.7625    0.0000 O   0  0  0  0  0  0  0  0  0  0  0  0
    0.2667   -2.8375    0.0000 O   0  0  0  0  0  0  0  0  0  0  0  0
    5.5167   -4.5250    0.0000 O   0  0  0  0  0  0  0  0  0  0  0  0
    4.8042   -6.5875    0.0000 C   0  0  0  0  0  0  0  0  0  0  0  0
    1.4667   -2.0625    0.0000 O   0  0  0  0  0  0  0  0  0  0  0  0
    6.2333   -5.7625    0.0000 O   0  0  0  0  0  0  0  0  0  0  0  0
    0.6542   -4.8333    0.0000 C   0  0  0  0  0  0  0  0  0  0  0  0
    0.4458   -4.0542    0.0000 C   0  0  0  0  0  0  0  0  0  0  0  0
    4.0875   -7.0000    0.0000 C   0  0  0  0  0  0  0  0  0  0  0  0
    5.5167   -7.0000    0.0000 C   0  0  0  0  0  0  0  0  0  0  0  0
    4.0875   -7.8250    0.0000 C   0  0  0  0  0  0  0  0  0  0  0  0
    5.5167   -7.8250    0.0000 C   0  0  0  0  0  0  0  0  0  0  0  0
    4.8042   -8.2375    0.0000 C   0  0  0  0  0  0  0  0  0  0  0  0
    2.9834   -5.2420    0.0000 H   0  0  0  0  0  0  0  0  0  0  0  0
    8.4708   -4.9458    0.0000 Na  0  0  0  0  0 15  0  0  0  0  0  0
  3  2  1  0
  4  2  1  0
  5  4  1  0
  6  2  1  0
  3  7  1  0
  8  6  1  0
  9 10  1  0
  5 10  1  1
 11  9  1  0
  6 12  1  6
 13 11  1  0
 14  4  2  0
 15  9  2  0
 16 12  1  0
 17 13  1  0
 18 11  1  0
 19 12  2  0
 20 13  2  0
 21  8  1  0
 22  8  1  0
 23 18  1  0
 24 18  2  0
 25 23  2  0
 26 24  1  0
 27 25  1  0
  5  3  1  0
  8  7  1  0
 27 26  2  0
  3 28  1  6
M  CHG  4   1   1  16  -1  17  -1  29   1
M  END

> <chembl_id>
CHEMBL606260

> <chembl_pref_name>
CARBENICILLIN DISODIUM

$$$$

     RDKit          2D

 37 40  0  0  1  0  0  0  0  0999 V2000
    4.4875   -4.2417    0.0000 N   0  0  0  0  0  0  0  0  0  0  0  0
    4.4875   -3.5375    0.0000 C   0  0  0  0  0  0  0  0  0  0  0  0
    0.0875   -3.5375    0.0000 N   0  0  0  0  0  0  0  0  0  0  0  0
    3.7750   -4.2500    0.0000 C   0  0  0  0  0  0  0  0  0  0  0  0
    3.7750   -3.5375    0.0000 C   0  0  0  0  0  0  0  0  0  0  0  0
    0.0917   -4.2417    0.0000 C   0  0  0  0  0  0  0  0  0  0  0  0
    5.1625   -4.4625    0.0000 C   0  0  0  0  0  0  0  0  0  0  0  0
    0.7042   -3.1792    0.0000 C   0  0  0  0  0  0  0  0  0  0  0  0
    5.1542   -3.3167    0.0000 S   0  0  0  0  0  0  0  0  0  0  0  0
    5.5792   -3.8875    0.0000 C   0  0  0  0  0  0  0  0  0  0  0  0
   -0.5250   -4.5917    0.0000 C   0  0  0  0  0  0  0  0  0  0  0  0
    3.1542   -3.1792    0.0000 N   0  0  0  0  0  0  0  0  0  0  0  0
    1.3167   -3.5375    0.0000 N   0  0  0  0  0  0  0  0  0  0  0  0
    2.5417   -3.5375    0.0000 C   0  0  0  0  0  0  0  0  0  0  0  0
   -1.1375   -4.2375    0.0000 N   0  0  0  0  0  0  0  0  0  0  0  0
    1.9292   -3.1792    0.0000 C   0  0  0  0  0  0  0  0  0  0  0  0
    5.1542   -5.1667    0.0000 C   0  0  0  0  0  0  0  0  0  0  0  0
   -0.5208   -3.1792    0.0000 C   0  0  0  0  0  0  0  0  0  0  0  0
    3.2750   -4.7500    0.0000 O   0  0  0  0  0  0  0  0  0  0  0  0
    0.7042   -4.5917    0.0000 O   0  0  0  0  0  0  0  0  0  0  0  0
    0.7042   -2.4750    0.0000 O   0  0  0  0  0  0  0  0  0  0  0  0
   -1.1333   -3.5292    0.0000 C   0  0  0  0  0  0  0  0  0  0  0  0
   -0.5250   -5.3000    0.0000 O   0  0  0  0  0  0  0  0  0  0  0  0
    2.5417   -4.2417    0.0000 O   0  0  0  0  0  0  0  0  0  0  0  0
    5.7667   -5.5292    0.0000 O   0  0  0  0  0  0  0  0  0  0  0  0
    4.5375   -5.5167    0.0000 O   0  0  0  0  0  0  0  0  0  0  0  0
    1.9292   -2.4750    0.0000 C   0  0  0  0  0  0  0  0  0  0  0  0
    6.1917   -4.2417    0.0000 C   0  0  0  0  0  0  0  0  0  0  0  0
    6.1917   -3.5292    0.0000 C   0  0  0  0  0  0  0  0  0  0  0  0
   -1.7500   -4.5875    0.0000 C   0  0  0  0  0  0  0  0  0  0  0  0
    2.5417   -2.1167    0.0000 C   0  0  0  0  0  0  0  0  0  0  0  0
    1.3167   -2.1250    0.0000 C   0  0  0  0  0  0  0  0  0  0  0  0
   -2.3625   -4.2292    0.0000 C   0  0  0  0  0  0  0  0  0  0  0  0
    2.5417   -1.4125    0.0000 C   0  0  0  0  0  0  0  0  0  0  0  0
    1.3167   -1.4167    0.0000 C   0  0  0  0  0  0  0  0  0  0  0  0
    1.9292   -1.0542    0.0000 C   0  0  0  0  0  0  0  0  0  0  0  0
    4.4792   -2.8292    0.0000 H   0  0  0  0  0  0  0  0  0  0  0  0
  2  1  1  0
  3  8  1  0
  4  1  1  0
  5  4  1  0
  6  3  1  0
  7  1  1  0
  8 13  1  0
  9  2  1  0
 10  7  1  0
 11  6  1  0
  5 12  1  1
 13 16  1  0
 14 12  1  0
 15 22  1  0
 16 14  1  0
  7 17  1  6
 18  3  1  0
 19  4  2  0
 20  6  2  0
 21  8  2  0
 22 18  1  0
 23 11  2  0
 24 14  2  0
 25 17  1  0
 26 17  2  0
 16 27  1  6
 28 10  1  0
 29 10  1  0
 30 15  1  0
 31 27  2  0
 32 27  1  0
 33 30  1  0
 34 31  1  0
 35 32  2  0
 36 34  2  0
  2 37  1  6
  9 10  1  0
  5  2  1  0
 36 35  1  0
 15 11  1  0
M  END

> <chembl_id>
CHEMBL702

> <chembl_pref_name>
PIPERACILLIN

$$$$

     RDKit          2D

 35 39  0  0  1  0  0  0  0  0999 V2000
    4.8750   -4.6792    0.0000 N   0  0  0  0  0  0  0  0  0  0  0  0
    4.8792   -3.9667    0.0000 C   0  0  0  0  0  0  0  0  0  0  0  0
    4.1500   -4.6792    0.0000 C   0  0  0  0  0  0  0  0  0  0  0  0
    4.1542   -3.9625    0.0000 C   0  0  0  0  0  0  0  0  0  0  0  0
    5.5542   -4.9042    0.0000 C   0  0  0  0  0  0  0  0  0  0  0  0
    5.5542   -3.7625    0.0000 S   0  0  0  0  0  0  0  0  0  0  0  0
    5.9667   -4.3542    0.0000 C   0  0  0  0  0  0  0  0  0  0  0  0
    5.7917   -5.5875    0.0000 C   0  0  0  0  0  0  0  0  0  0  0  0
    6.7250   -6.4000    0.0000 C   0  0  0  0  0  0  0  0  0  0  0  0
    6.3042   -6.9542    0.0000 O   0  0  0  0  0  0  0  0  0  0  0  0
    3.6667   -3.4417    0.0000 N   0  0  0  0  0  0  0  0  0  0  0  0
    6.6792   -7.5292    0.0000 C   0  0  0  0  0  0  0  0  0  0  0  0
    6.5167   -5.7167    0.0000 O   0  0  0  0  0  0  0  0  0  0  0  0
    2.9667   -3.6167    0.0000 C   0  0  0  0  0  0  0  0  0  0  0  0
    7.4167   -6.6292    0.0000 C   0  0  0  0  0  0  0  0  0  0  0  0
    7.4000   -7.3375    0.0000 C   0  0  0  0  0  0  0  0  0  0  0  0
    2.4667   -3.1125    0.0000 C   0  0  0  0  0  0  0  0  0  0  0  0
    3.6417   -5.1667    0.0000 O   0  0  0  0  0  0  0  0  0  0  0  0
    5.3000   -6.1375    0.0000 O   0  0  0  0  0  0  0  0  0  0  0  0
    6.5125   -8.1167    0.0000 O   0  0  0  0  0  0  0  0  0  0  0  0
    2.7917   -4.3000    0.0000 O   0  0  0  0  0  0  0  0  0  0  0  0
    1.7792   -3.3042    0.0000 C   0  0  0  0  0  0  0  0  0  0  0  0
    2.6417   -2.4375    0.0000 N   0  0  0  0  0  0  0  0  0  0  0  0
    6.5667   -3.9542    0.0000 C   0  0  0  0  0  0  0  0  0  0  0  0
    6.6042   -4.6750    0.0000 C   0  0  0  0  0  0  0  0  0  0  0  0
    8.0000   -7.7042    0.0000 C   0  0  0  0  0  0  0  0  0  0  0  0
    8.0292   -6.2792    0.0000 C   0  0  0  0  0  0  0  0  0  0  0  0
    1.2875   -2.8125    0.0000 C   0  0  0  0  0  0  0  0  0  0  0  0
    1.6042   -3.9875    0.0000 C   0  0  0  0  0  0  0  0  0  0  0  0
    8.6167   -7.3625    0.0000 C   0  0  0  0  0  0  0  0  0  0  0  0
    8.6375   -6.6417    0.0000 C   0  0  0  0  0  0  0  0  0  0  0  0
    0.9292   -4.1667    0.0000 C   0  0  0  0  0  0  0  0  0  0  0  0
    0.6042   -3.0000    0.0000 C   0  0  0  0  0  0  0  0  0  0  0  0
    0.4292   -3.6792    0.0000 C   0  0  0  0  0  0  0  0  0  0  0  0
    4.7357   -2.9770    0.0000 H   0  0  0  0  0  0  0  0  0  0  0  0
  2  1  1  0
  3  1  1  0
  4  3  1  0
  5  1  1  0
  6  2  1  0
  7  5  1  0
  5  8  1  6
  9 13  1  0
 10  9  1  0
  4 11  1  1
 12 10  1  0
 13  8  1  0
 14 11  1  0
 15  9  1  0
 16 15  2  0
 17 14  1  0
 18  3  2  0
 19  8  2  0
 20 12  2  0
 21 14  2  0
 22 17  1  0
 17 23  1  1
 24  7  1  0
 25  7  1  0
 26 16  1  0
 27 15  1  0
 28 22  1  0
 29 22  2  0
 30 31  1  0
 31 27  2  0
 32 29  1  0
 33 28  2  0
 34 33  1  0
  6  7  1  0
  2  4  1  0
 16 12  1  0
 26 30  2  0
 32 34  2  0
  2 35  1  6
M  END

> <chembl_id>
CHEMBL1619785

> <chembl_pref_name>
TALAMPICILLIN

$$$$

     RDKit          2D

 25 27  0  0  1  0  0  0  0  0999 V2000
    4.4028    0.2427    0.0000 N   0  0  0  0  0  0  0  0  0  0  0  0
    2.9467    0.5893    0.0000 C   0  0  0  0  0  0  0  0  0  0  0  0
    4.0387   -1.2480    0.0000 C   0  0  0  0  0  0  0  0  0  0  0  0
    2.5654   -0.9014    0.0000 C   0  0  0  0  0  0  0  0  0  0  0  0
    5.1654    1.5080    0.0000 C   0  0  0  0  0  0  0  0  0  0  0  0
    2.8254    2.0454    0.0000 S   0  0  0  0  0  0  0  0  0  0  0  0
    4.1948    2.6347    0.0000 C   0  0  0  0  0  0  0  0  0  0  0  0
    1.2905   -1.6806    0.0000 N   0  0  0  0  0  0  0  0  0  0  0  0
    1.3272   -3.1809    0.0000 C   0  0  0  0  0  0  0  0  0  0  0  0
    6.6590    1.6292    0.0000 C   0  0  0  0  0  0  0  0  0  0  0  0
    0.0467   -3.9637    0.0000 C   0  0  0  0  0  0  0  0  0  0  0  0
    4.6661   -2.2710    0.0000 O   0  0  0  0  0  0  0  0  0  0  0  0
    2.3809   -3.7550    0.0000 O   0  0  0  0  0  0  0  0  0  0  0  0
    7.3417    0.6422    0.0000 O   0  0  0  0  0  0  0  0  0  0  0  0
    0.0833   -5.4641    0.0000 C   0  0  0  0  0  0  0  0  0  0  0  0
   -1.0071   -3.3896    0.0000 N   0  0  0  0  0  0  0  0  0  0  0  0
    7.1727    2.7136    0.0000 O   0  0  0  0  0  0  0  0  0  0  0  0
    5.3472    2.9691    0.0000 C   0  0  0  0  0  0  0  0  0  0  0  0
    3.3052    3.4401    0.0000 C   0  0  0  0  0  0  0  0  0  0  0  0
   -1.1954   -6.2483    0.0000 C   0  0  0  0  0  0  0  0  0  0  0  0
    1.4018   -6.1795    0.0000 C   0  0  0  0  0  0  0  0  0  0  0  0
   -1.1556   -7.7478    0.0000 C   0  0  0  0  0  0  0  0  0  0  0  0
    1.4415   -7.6790    0.0000 C   0  0  0  0  0  0  0  0  0  0  0  0
    0.1628   -8.4631    0.0000 C   0  0  0  0  0  0  0  0  0  0  0  0
    1.9502    0.6729    0.0000 H   0  0  0  0  0  0  0  0  0  0  0  0
  2  1  1  0
  3  1  1  0
  4  3  1  0
  5  1  1  0
  6  2  1  0
  7  5  1  0
  4  8  1  1
  9  8  1  0
  5 10  1  6
 11  9  1  0
 12  3  2  0
 13  9  2  0
 14 10  2  0
 15 11  1  0
 11 16  1  1
 17 10  1  0
 18  7  1  0
 19  7  1  0
 20 15  2  0
 21 15  1  0
 22 20  1  0
 23 21  2  0
 24 23  1  0
  2 25  1  6
  6  7  1  0
  2  4  1  0
 22 24  2  0
M  END

> <chembl_id>
CHEMBL174

> <chembl_pref_name>
AMPICILLIN

$$$$

     RDKit          2D

 35 37  0  0  1  0  0  0  0  0999 V2000
    1.9782    5.3332    0.0000 S   0  0  0  0  0  0  0  0  0  0  0  0
    0.9392    2.7845    0.0000 O   0  0  0  0  0  0  0  0  0  0  0  0
   -0.5096    5.7660    0.0000 O   0  0  0  0  0  0  0  0  0  0  0  0
   -0.5843    4.3390    0.0000 O   0  0  0  0  0  0  0  0  0  0  0  0
    3.5775    4.5374    0.0000 O   0  0  0  0  0  0  0  0  0  0  0  0
    5.7209    2.4749    0.0000 O   0  0  0  0  0  0  0  0  0  0  0  0
    4.2920   -0.0001    0.0000 O   0  0  0  0  0  0  0  0  0  0  0  0
    7.8644    4.5374    0.0000 O   0  0  0  0  0  0  0  0  0  0  0  0
    1.1382    4.2958    0.0000 N   0  0  0  0  0  0  0  0  0  0  0  0
    2.8631    3.2999    0.0000 N   0  0  0  0  0  0  0  0  0  0  0  0
    5.0065    3.7124    0.0000 N   0  0  0  0  0  0  0  0  0  0  0  0
    6.4354    4.5374    0.0000 N   0  0  0  0  0  0  0  0  0  0  0  0
    8.5788    3.2999    0.0000 N   0  0  0  0  0  0  0  0  0  0  0  0
    1.9351    4.5093    0.0000 C   0  0  0  0  0  0  0  0  0  0  0  0
    2.1486    3.7124    0.0000 C   0  0  0  0  0  0  0  0  0  0  0  0
    0.6889    4.9877    0.0000 C   0  0  0  0  0  0  0  0  0  0  0  0
    1.3517    3.4989    0.0000 C   0  0  0  0  0  0  0  0  0  0  0  0
    1.2080    5.6289    0.0000 C   0  0  0  0  0  0  0  0  0  0  0  0
   -0.1350    5.0309    0.0000 C   0  0  0  0  0  0  0  0  0  0  0  0
    1.4132    6.4279    0.0000 C   0  0  0  0  0  0  0  0  0  0  0  0
    0.6308    6.2183    0.0000 C   0  0  0  0  0  0  0  0  0  0  0  0
    3.5775    3.7124    0.0000 C   0  0  0  0  0  0  0  0  0  0  0  0
    4.2920    3.2999    0.0000 C   0  0  0  0  0  0  0  0  0  0  0  0
    4.2920    2.4749    0.0000 C   0  0  0  0  0  0  0  0  0  0  0  0
    5.7209    3.2999    0.0000 C   0  0  0  0  0  0  0  0  0  0  0  0
    5.0065    2.0624    0.0000 C   0  0  0  0  0  0  0  0  0  0  0  0
    3.5775    2.0624    0.0000 C   0  0  0  0  0  0  0  0  0  0  0  0
    6.4354    3.7124    0.0000 C   0  0  0  0  0  0  0  0  0  0  0  0
    5.0065    1.2374    0.0000 C   0  0  0  0  0  0  0  0  0  0  0  0
    3.5775    1.2374    0.0000 C   0  0  0  0  0  0  0  0  0  0  0  0
    4.2920    0.8249    0.0000 C   0  0  0  0  0  0  0  0  0  0  0  0
    7.1499    3.2999    0.0000 C   0  0  0  0  0  0  0  0  0  0  0  0
    7.8644    3.7124    0.0000 C   0  0  0  0  0  0  0  0  0  0  0  0
    9.2933    3.7124    0.0000 C   0  0  0  0  0  0  0  0  0  0  0  0
    2.7555    4.5956    0.0000 H   0  0  0  0  0  0  0  0  0  0  0  0
  1 14  1  0
  1 18  1  0
  2 17  2  0
  3 19  2  0
  4 19  1  0
  5 22  2  0
  6 25  2  0
  7 31  1  0
  8 33  2  0
  9 14  1  0
  9 16  1  0
  9 17  1  0
 15 10  1  6
 10 22  1  0
 23 11  1  6
 11 25  1  0
 28 12  1  6
 13 33  1  0
 13 34  1  0
 14 15  1  0
 14 35  1  1
 15 17  1  0
 16 18  1  0
 16 19  1  1
 18 20  1  0
 18 21  1  0
 22 23  1  0
 23 24  1  0
 24 26  2  0
 24 27  1  0
 25 28  1  0
 26 29  1  0
 27 30  2  0
 28 32  1  0
 29 31  2  0
 30 31  1  0
 32 33  1  0
M  END

> <chembl_id>
CHEMBL1318150

> <chembl_pref_name>
ASPOXICILLIN

$$$$

     RDKit          2D

 33 36  0  0  0  0  0  0  0  0999 V2000
    3.5500   -9.6458    0.0000 N   0  0  0  0  0  0  0  0  0  0  0  0
    3.5500   -8.9375    0.0000 C   0  0  0  0  0  0  0  0  0  0  0  0
    2.8375   -9.6500    0.0000 C   0  0  0  0  0  0  0  0  0  0  0  0
    2.8375   -8.9375    0.0000 C   0  0  0  0  0  0  0  0  0  0  0  0
   -0.8500   -8.9375    0.0000 N   0  0  0  0  0  0  0  0  0  0  0  0
    4.2250   -9.8625    0.0000 C   0  0  0  0  0  0  0  0  0  0  0  0
    4.2208   -8.7167    0.0000 S   0  0  0  0  0  0  0  0  0  0  0  0
   -0.2333   -8.5833    0.0000 C   0  0  0  0  0  0  0  0  0  0  0  0
    4.6417   -9.2875    0.0000 C   0  0  0  0  0  0  0  0  0  0  0  0
    2.2167   -8.5792    0.0000 N   0  0  0  0  0  0  0  0  0  0  0  0
   -1.4208   -8.5167    0.0000 C   0  0  0  0  0  0  0  0  0  0  0  0
    1.6042   -8.9375    0.0000 C   0  0  0  0  0  0  0  0  0  0  0  0
    0.3792   -8.9375    0.0000 N   0  0  0  0  0  0  0  0  0  0  0  0
    0.9917   -8.5833    0.0000 C   0  0  0  0  0  0  0  0  0  0  0  0
    4.2167  -10.5667    0.0000 C   0  0  0  0  0  0  0  0  0  0  0  0
   -1.9958   -8.9375    0.0000 N   0  0  0  0  0  0  0  0  0  0  0  0
    2.3375  -10.1500    0.0000 O   0  0  0  0  0  0  0  0  0  0  0  0
   -0.2333   -7.8750    0.0000 O   0  0  0  0  0  0  0  0  0  0  0  0
   -1.4208   -7.8083    0.0000 O   0  0  0  0  0  0  0  0  0  0  0  0
    1.6042   -9.6458    0.0000 O   0  0  0  0  0  0  0  0  0  0  0  0
    4.8292  -10.9292    0.0000 O   0  0  0  0  0  0  0  0  0  0  0  0
    3.6000  -10.9167    0.0000 O   0  0  0  0  0  0  0  0  0  0  0  0
    0.9917   -7.8750    0.0000 C   0  0  0  0  0  0  0  0  0  0  0  0
   -1.0667   -9.6083    0.0000 C   0  0  0  0  0  0  0  0  0  0  0  0
   -1.7750   -9.6083    0.0000 C   0  0  0  0  0  0  0  0  0  0  0  0
    5.2542   -9.6417    0.0000 C   0  0  0  0  0  0  0  0  0  0  0  0
    5.2542   -8.9292    0.0000 C   0  0  0  0  0  0  0  0  0  0  0  0
    1.6083   -7.5208    0.0000 C   0  0  0  0  0  0  0  0  0  0  0  0
    0.3833   -7.5250    0.0000 C   0  0  0  0  0  0  0  0  0  0  0  0
    0.3792   -6.8167    0.0000 C   0  0  0  0  0  0  0  0  0  0  0  0
    1.6083   -6.8125    0.0000 C   0  0  0  0  0  0  0  0  0  0  0  0
    0.9958   -6.4583    0.0000 C   0  0  0  0  0  0  0  0  0  0  0  0
    3.5417   -8.2292    0.0000 H   0  0  0  0  0  0  0  0  0  0  0  0
  2  1  1  0
  3  1  1  0
  4  2  1  0
  5  8  1  0
  6  1  1  0
  7  2  1  0
  8 13  1  0
  9  6  1  0
  4 10  1  1
 11  5  1  0
 12 10  1  0
 13 14  1  0
 14 12  1  0
  6 15  1  6
 16 11  1  0
 17  3  2  0
 18  8  2  0
 19 11  2  0
 20 12  2  0
 21 15  1  0
 22 15  2  0
 14 23  1  6
 24  5  1  0
 25 24  1  0
 26  9  1  0
 27  9  1  0
 28 23  2  0
 29 23  1  0
 30 29  2  0
 31 28  1  0
 32 30  1  0
  2 33  1  6
  7  9  1  0
  3  4  1  0
 32 31  2  0
 25 16  1  0
M  END

> <chembl_id>
CHEMBL1537

> <chembl_pref_name>
AZLOCILLIN

$$$$

     RDKit          2D

 30 33  0  0  1  0  0  0  0  0999 V2000
    1.9794   -4.6501    0.0000 Cl  0  0  0  0  0  0  0  0  0  0  0  0
    5.1654    1.5080    0.0000 S   0  0  0  0  0  0  0  0  0  0  0  0
    1.5390   -1.5231    0.0000 O   0  0  0  0  0  0  0  0  0  0  0  0
    1.5488    4.0085    0.0000 O   0  0  0  0  0  0  0  0  0  0  0  0
    0.4897    2.2203    0.0000 O   0  0  0  0  0  0  0  0  0  0  0  0
    2.8956   -3.8695    0.0000 O   0  0  0  0  0  0  0  0  0  0  0  0
    6.7069   -6.6845    0.0000 O   0  0  0  0  0  0  0  0  0  0  0  0
    2.9467    0.5893    0.0000 N   0  0  0  0  0  0  0  0  0  0  0  0
    4.8152   -2.5250    0.0000 N   0  0  0  0  0  0  0  0  0  0  0  0
    5.4268   -7.4664    0.0000 N   0  0  0  0  0  0  0  0  0  0  0  0
    4.4028    0.2427    0.0000 C   0  0  0  0  0  0  0  0  0  0  0  0
    4.0387   -1.2480    0.0000 C   0  0  0  0  0  0  0  0  0  0  0  0
    2.8254    2.0454    0.0000 C   0  0  0  0  0  0  0  0  0  0  0  0
    2.5654   -0.9014    0.0000 C   0  0  0  0  0  0  0  0  0  0  0  0
    4.1948    2.6347    0.0000 C   0  0  0  0  0  0  0  0  0  0  0  0
    1.5357    2.8086    0.0000 C   0  0  0  0  0  0  0  0  0  0  0  0
    3.3050    3.4400    0.0000 C   0  0  0  0  0  0  0  0  0  0  0  0
    5.3472    2.9693    0.0000 C   0  0  0  0  0  0  0  0  0  0  0  0
    4.0953   -3.8419    0.0000 C   0  0  0  0  0  0  0  0  0  0  0  0
    4.8750   -5.1243    0.0000 C   0  0  0  0  0  0  0  0  0  0  0  0
    4.2876   -6.4906    0.0000 C   0  0  0  0  0  0  0  0  0  0  0  0
    6.3588   -5.2255    0.0000 C   0  0  0  0  0  0  0  0  0  0  0  0
    2.8258   -6.8301    0.0000 C   0  0  0  0  0  0  0  0  0  0  0  0
    1.7220   -5.8221    0.0000 C   0  0  0  0  0  0  0  0  0  0  0  0
    7.1341   -4.3095    0.0000 C   0  0  0  0  0  0  0  0  0  0  0  0
    2.5089   -8.2982    0.0000 C   0  0  0  0  0  0  0  0  0  0  0  0
    0.2925   -6.2764    0.0000 C   0  0  0  0  0  0  0  0  0  0  0  0
    1.0794   -8.7525    0.0000 C   0  0  0  0  0  0  0  0  0  0  0  0
   -0.0288   -7.7416    0.0000 C   0  0  0  0  0  0  0  0  0  0  0  0
    5.3273   -0.1384    0.0000 H   0  0  0  0  0  0  0  0  0  0  0  0
  1 24  1  0
 11  2  1  0
 15  2  1  0
 14  3  2  0
 16  4  1  0
 16  5  2  0
 19  6  2  0
  7 10  1  0
 22  7  1  0
 11  8  1  0
  8 13  1  0
 14  8  1  0
 12  9  1  6
 19  9  1  0
 10 21  2  0
 11 12  1  0
 12 14  1  0
 13 15  1  0
 13 16  1  1
 15 17  1  0
 15 18  1  0
 20 19  1  0
 21 20  1  0
 20 22  2  0
 23 21  1  0
 22 25  1  0
 23 24  2  0
 26 23  1  0
 24 27  1  0
 28 26  2  0
 27 29  2  0
 29 28  1  0
 11 30  1  1
M  END

> <chembl_id>
CHEMBL891

> <chembl_pref_name>
CLOXACILLIN

$$$$

     RDKit          2D

 29 31  0  0  1  0  0  0  0  0999 V2000
    0.1167    0.2625    0.0000 N   0  0  0  0  0  0  0  0  0  0  0  0
    0.1167   -0.6375    0.0000 C   0  0  0  0  0  0  0  0  0  0  0  0
   -0.7583    0.2625    0.0000 C   0  0  0  0  0  0  0  0  0  0  0  0
   -0.7583   -0.6375    0.0000 C   0  0  0  0  0  0  0  0  0  0  0  0
    0.9792    0.5458    0.0000 C   0  0  0  0  0  0  0  0  0  0  0  0
    0.9792   -0.9042    0.0000 S   0  0  0  0  0  0  0  0  0  0  0  0
    1.4917   -0.1792    0.0000 C   0  0  0  0  0  0  0  0  0  0  0  0
   -1.6208   -0.4000    0.0000 N   0  0  0  0  0  0  0  0  0  0  0  0
    1.7125    1.0708    0.0000 C   0  0  0  0  0  0  0  0  0  0  0  0
   -2.2458   -1.0250    0.0000 C   0  0  0  0  0  0  0  0  0  0  0  0
   -1.0708    0.9875    0.0000 O   0  0  0  0  0  0  0  0  0  0  0  0
    3.4792   -1.4792    0.0000 C   0  0  0  0  0  0  0  0  0  0  0  0
    2.5167    0.6833    0.0000 O   0  0  0  0  0  0  0  0  0  0  0  0
    2.5917   -0.2000    0.0000 C   0  0  0  0  0  0  0  0  0  0  0  0
    1.6292    1.9583    0.0000 O   0  0  0  0  0  0  0  0  0  0  0  0
    3.4000   -0.5917    0.0000 O   0  0  0  0  0  0  0  0  0  0  0  0
   -2.0500   -1.8875    0.0000 O   0  0  0  0  0  0  0  0  0  0  0  0
    4.2792   -1.8500    0.0000 O   0  0  0  0  0  0  0  0  0  0  0  0
   -3.1125   -0.7667    0.0000 C   0  0  0  0  0  0  0  0  0  0  0  0
    2.2542    0.2833    0.0000 C   0  0  0  0  0  0  0  0  0  0  0  0
    2.2167   -0.7125    0.0000 C   0  0  0  0  0  0  0  0  0  0  0  0
   -3.3083    0.0708    0.0000 C   0  0  0  0  0  0  0  0  0  0  0  0
    2.7500   -1.9875    0.0000 C   0  0  0  0  0  0  0  0  0  0  0  0
   -2.6833    0.7208    0.0000 C   0  0  0  0  0  0  0  0  0  0  0  0
   -4.1333    0.3208    0.0000 C   0  0  0  0  0  0  0  0  0  0  0  0
   -2.8583    1.5625    0.0000 C   0  0  0  0  0  0  0  0  0  0  0  0
   -4.3458    1.1833    0.0000 C   0  0  0  0  0  0  0  0  0  0  0  0
   -3.7208    1.8125    0.0000 C   0  0  0  0  0  0  0  0  0  0  0  0
   -0.0327   -1.6263    0.0000 H   0  0  0  0  0  0  0  0  0  0  0  0
  2  1  1  0
  3  1  1  0
  4  3  1  0
  5  1  1  0
  6  2  1  0
  7  5  1  0
  4  8  1  6
  5  9  1  1
 10  8  1  0
 11  3  2  0
 12 16  1  0
 13  9  1  0
 14 13  1  0
 15  9  2  0
 16 14  1  0
 17 10  2  0
 18 12  2  0
 19 10  1  0
 20  7  1  0
 21  7  1  0
 22 19  1  0
 23 12  1  0
 24 22  2  0
 25 22  1  0
 26 24  1  0
 27 25  2  0
 28 27  1  0
  6  7  1  0
  2  4  1  0
 26 28  2  0
  2 29  1  1
M  END

> <chembl_id>
CHEMBL2106988

> <chembl_pref_name>
PENAMECILLIN

$$$$

     RDKit          2D

 38 40  0  0  0  0  0  0  0  0999 V2000
    6.4292   -5.5125    0.0000 Na  0  0  0  0  0 15  0  0  0  0  0  0
    4.4875   -4.2417    0.0000 N   0  0  0  0  0  0  0  0  0  0  0  0
    4.4875   -3.5375    0.0000 C   0  0  0  0  0  0  0  0  0  0  0  0
    0.0875   -3.5375    0.0000 N   0  0  0  0  0  0  0  0  0  0  0  0
    3.7750   -4.2500    0.0000 C   0  0  0  0  0  0  0  0  0  0  0  0
    3.7750   -3.5375    0.0000 C   0  0  0  0  0  0  0  0  0  0  0  0
    0.0917   -4.2417    0.0000 C   0  0  0  0  0  0  0  0  0  0  0  0
    5.1625   -4.4625    0.0000 C   0  0  0  0  0  0  0  0  0  0  0  0
    0.7042   -3.1792    0.0000 C   0  0  0  0  0  0  0  0  0  0  0  0
    5.1542   -3.3167    0.0000 S   0  0  0  0  0  0  0  0  0  0  0  0
    5.5792   -3.8875    0.0000 C   0  0  0  0  0  0  0  0  0  0  0  0
   -0.5250   -4.5917    0.0000 C   0  0  0  0  0  0  0  0  0  0  0  0
    3.1542   -3.1792    0.0000 N   0  0  0  0  0  0  0  0  0  0  0  0
    1.3167   -3.5375    0.0000 N   0  0  0  0  0  0  0  0  0  0  0  0
    2.5417   -3.5375    0.0000 C   0  0  0  0  0  0  0  0  0  0  0  0
   -1.1375   -4.2375    0.0000 N   0  0  0  0  0  0  0  0  0  0  0  0
    1.9292   -3.1792    0.0000 C   0  0  0  0  0  0  0  0  0  0  0  0
    5.1542   -5.1667    0.0000 C   0  0  0  0  0  0  0  0  0  0  0  0
   -0.5208   -3.1792    0.0000 C   0  0  0  0  0  0  0  0  0  0  0  0
    3.2750   -4.7500    0.0000 O   0  0  0  0  0  0  0  0  0  0  0  0
    0.7042   -4.5917    0.0000 O   0  0  0  0  0  0  0  0  0  0  0  0
    0.7042   -2.4750    0.0000 O   0  0  0  0  0  0  0  0  0  0  0  0
   -1.1333   -3.5292    0.0000 C   0  0  0  0  0  0  0  0  0  0  0  0
   -0.5250   -5.3000    0.0000 O   0  0  0  0  0  0  0  0  0  0  0  0
    2.5417   -4.2417    0.0000 O   0  0  0  0  0  0  0  0  0  0  0  0
    5.7667   -5.5292    0.0000 O   0  0  0  0  0  0  0  0  0  0  0  0
    4.5375   -5.5167    0.0000 O   0  0  0  0  0  0  0  0  0  0  0  0
    1.9292   -2.4750    0.0000 C   0  0  0  0  0  0  0  0  0  0  0  0
    6.1917   -4.2417    0.0000 C   0  0  0  0  0  0  0  0  0  0  0  0
    6.1917   -3.5292    0.0000 C   0  0  0  0  0  0  0  0  0  0  0  0
   -1.7500   -4.5875    0.0000 C   0  0  0  0  0  0  0  0  0  0  0  0
    2.5417   -2.1167    0.0000 C   0  0  0  0  0  0  0  0  0  0  0  0
    1.3167   -2.1250    0.0000 C   0  0  0  0  0  0  0  0  0  0  0  0
   -2.3625   -4.2292    0.0000 C   0  0  0  0  0  0  0  0  0  0  0  0
    2.5417   -1.4125    0.0000 C   0  0  0  0  0  0  0  0  0  0  0  0
    1.3167   -1.4167    0.0000 C   0  0  0  0  0  0  0  0  0  0  0  0
    1.9292   -1.0542    0.0000 C   0  0  0  0  0  0  0  0  0  0  0  0
    4.4792   -2.8292    0.0000 H   0  0  0  0  0  0  0  0  0  0  0  0
  3  2  1  0
  4  9  1  0
  5  2  1  0
  6  5  1  0
  7  4  1  0
  8  2  1  0
  9 14  1  0
 10  3  1  0
 11  8  1  0
 12  7  1  0
  6 13  1  1
 14 17  1  0
 15 13  1  0
 16 23  1  0
 17 15  1  0
  8 18  1  6
 19  4  1  0
 20  5  2  0
 21  7  2  0
 22  9  2  0
 23 19  1  0
 24 12  2  0
 25 15  2  0
 26 18  1  0
 27 18  2  0
 17 28  1  6
 29 11  1  0
 30 11  1  0
 31 16  1  0
 32 28  2  0
 33 28  1  0
 34 31  1  0
 35 32  1  0
 36 33  2  0
 37 35  2  0
  3 38  1  6
 10 11  1  0
  6  3  1  0
 37 36  1  0
 16 12  1  0
M  CHG  2   1   1  26  -1
M  END

> <chembl_id>
CHEMBL1200820

> <chembl_pref_name>
PIPERACILLIN SODIUM

$$$$

     RDKit          2D

 27 29  0  0  1  0  0  0  0  0999 V2000
    0.8958   -6.0833    0.0000 N   0  0  0  0  0  0  0  0  0  0  0  0
    0.8917   -5.3750    0.0000 C   0  0  0  0  0  0  0  0  0  0  0  0
    0.1875   -6.0875    0.0000 C   0  0  0  0  0  0  0  0  0  0  0  0
    0.1875   -5.3750    0.0000 C   0  0  0  0  0  0  0  0  0  0  0  0
    1.5708   -6.3000    0.0000 C   0  0  0  0  0  0  0  0  0  0  0  0
    1.5667   -5.1542    0.0000 S   0  0  0  0  0  0  0  0  0  0  0  0
    1.9875   -5.7250    0.0000 C   0  0  0  0  0  0  0  0  0  0  0  0
   -1.0500   -5.3750    0.0000 C   0  0  0  0  0  0  0  0  0  0  0  0
   -0.4333   -5.0167    0.0000 N   0  0  0  0  0  0  0  0  0  0  0  0
   -1.6625   -5.0208    0.0000 C   0  0  0  0  0  0  0  0  0  0  0  0
    1.5667   -7.0042    0.0000 C   0  0  0  0  0  0  0  0  0  0  0  0
   -0.3167   -6.5875    0.0000 O   0  0  0  0  0  0  0  0  0  0  0  0
   -1.0500   -6.0833    0.0000 O   0  0  0  0  0  0  0  0  0  0  0  0
   -1.6583   -4.3083    0.0000 C   0  0  0  0  0  0  0  0  0  0  0  0
   -2.2708   -5.3750    0.0000 C   0  0  0  0  0  0  0  0  0  0  0  0
    2.1750   -7.3667    0.0000 O   0  0  0  0  0  0  0  0  0  0  0  0
    0.9458   -7.3542    0.0000 O   0  0  0  0  0  0  0  0  0  0  0  0
    2.6000   -6.0792    0.0000 C   0  0  0  0  0  0  0  0  0  0  0  0
    2.6000   -5.3667    0.0000 C   0  0  0  0  0  0  0  0  0  0  0  0
   -1.0417   -3.9583    0.0000 O   0  0  0  0  0  0  0  0  0  0  0  0
   -2.2667   -6.0792    0.0000 O   0  0  0  0  0  0  0  0  0  0  0  0
   -2.8833   -4.3083    0.0000 C   0  0  0  0  0  0  0  0  0  0  0  0
   -2.8833   -5.0208    0.0000 C   0  0  0  0  0  0  0  0  0  0  0  0
   -2.2708   -3.9542    0.0000 C   0  0  0  0  0  0  0  0  0  0  0  0
   -0.4292   -4.3125    0.0000 C   0  0  0  0  0  0  0  0  0  0  0  0
   -1.6500   -6.4333    0.0000 C   0  0  0  0  0  0  0  0  0  0  0  0
    0.8875   -4.6667    0.0000 H   0  0  0  0  0  0  0  0  0  0  0  0
  2  1  1  0
  3  1  1  0
  4  3  1  0
  5  1  1  0
  6  2  1  0
  7  5  1  0
  8  9  1  0
  4  9  1  1
 10  8  1  0
  5 11  1  6
 12  3  2  0
 13  8  2  0
 14 10  2  0
 15 10  1  0
 16 11  1  0
 17 11  2  0
 18  7  1  0
 19  7  1  0
 20 14  1  0
 21 15  1  0
 22 23  1  0
 23 15  2  0
 24 14  1  0
 25 20  1  0
 26 21  1  0
  2 27  1  6
  4  2  1  0
  6  7  1  0
 22 24  2  0
M  END

> <chembl_id>
CHEMBL575

> <chembl_pref_name>
METHICILLIN

$$$$

     RDKit          2D

 25 26  0  0  0  0  0  0  0  0999 V2000
    2.8458   -2.5000    0.0000 N   0  0  0  0  0  0  0  0  0  0  0  0
    2.8458   -1.6750    0.0000 C   0  0  0  0  0  0  0  0  0  0  0  0
    2.0208   -2.5000    0.0000 C   0  0  0  0  0  0  0  0  0  0  0  0
    2.0208   -1.6750    0.0000 C   0  0  0  0  0  0  0  0  0  0  0  0
    3.6333   -2.7583    0.0000 C   0  0  0  0  0  0  0  0  0  0  0  0
    3.6333   -1.4208    0.0000 S   0  0  0  0  0  0  0  0  0  0  0  0
    4.1167   -2.0875    0.0000 C   0  0  0  0  0  0  0  0  0  0  0  0
    1.3083   -1.2625    0.0000 N   0  0  0  0  0  0  0  0  0  0  0  0
    3.8833   -3.5375    0.0000 C   0  0  0  0  0  0  0  0  0  0  0  0
    0.5958   -1.6708    0.0000 C   0  0  0  0  0  0  0  0  0  0  0  0
    1.4333   -3.0875    0.0000 O   0  0  0  0  0  0  0  0  0  0  0  0
    3.3333   -4.1500    0.0000 O   0  0  0  0  0  0  0  0  0  0  0  0
    0.5917   -2.4958    0.0000 O   0  0  0  0  0  0  0  0  0  0  0  0
   -0.1167   -1.2500    0.0000 C   0  0  0  0  0  0  0  0  0  0  0  0
    4.6958   -3.7125    0.0000 O   0  0  0  0  0  0  0  0  0  0  0  0
    4.6958   -1.5000    0.0000 C   0  0  0  0  0  0  0  0  0  0  0  0
    4.8292   -2.5000    0.0000 C   0  0  0  0  0  0  0  0  0  0  0  0
    2.8417   -0.8500    0.0000 H   0  0  0  0  0  0  0  0  0  0  0  0
   -0.8352   -1.6554    0.0000 C   0  0  0  0  0  0  0  0  0  0  0  0
   -1.5455   -1.2358    0.0000 C   0  0  0  0  0  0  0  0  0  0  0  0
   -2.2641   -1.6412    0.0000 C   0  0  0  0  0  0  0  0  0  0  0  0
   -2.9744   -1.2217    0.0000 C   0  0  0  0  0  0  0  0  0  0  0  0
   -3.6929   -1.6271    0.0000 O   0  0  0  0  0  0  0  0  0  0  0  0
   -2.9662   -0.3967    0.0000 O   0  0  0  0  0  0  0  0  0  0  0  0
   -2.2722   -2.4662    0.0000 N   0  0  0  0  0  0  0  0  0  0  0  0
  4  8  1  1
  5  9  1  6
 10  8  1  0
 11  3  2  0
 12  9  2  0
 13 10  2  0
 14 10  1  0
 15  9  1  0
 16  7  1  0
 17  7  1  0
  2 18  1  6
  7  6  1  0
  2  4  1  0
 14 19  1  0
  2  1  1  0
 19 20  1  0
  3  1  1  0
 20 21  1  0
  4  3  1  0
 21 22  1  0
  5  1  1  0
 22 23  1  0
  6  2  1  0
 22 24  2  0
  7  5  1  0
 21 25  1  1
M  END

> <chembl_id>
CHEMBL2023705

> <chembl_pref_name>
ADICILLIN

$$$$

     RDKit          2D

 68 73  0  0  0  0  0  0  0  0999 V2000
    6.2338    0.5523    0.0000 C   0  0  0  0  0  0  0  0  0  0  0  0
    5.5193    0.1398    0.0000 C   0  0  0  0  0  0  0  0  0  0  0  0
    5.5193   -0.6852    0.0000 C   0  0  0  0  0  0  0  0  0  0  0  0
    6.2338   -1.0977    0.0000 C   0  0  0  0  0  0  0  0  0  0  0  0
    6.9482   -0.6852    0.0000 C   0  0  0  0  0  0  0  0  0  0  0  0
    6.9482    0.1398    0.0000 C   0  0  0  0  0  0  0  0  0  0  0  0
    7.6833    0.5143    0.0000 C   0  0  0  0  0  0  0  0  0  0  0  0
    8.3752    0.0650    0.0000 N   0  0  0  0  0  0  0  0  0  0  0  0
    9.1103    0.4395    0.0000 C   0  0  0  0  0  0  0  0  0  0  0  0
    9.8022   -0.0098    0.0000 C   0  0  0  0  0  0  0  0  0  0  0  0
   10.5373    0.3648    0.0000 N   0  0  0  0  0  0  0  0  0  0  0  0
   11.2292   -0.0846    0.0000 C   0  0  0  0  0  0  0  0  0  0  0  0
   11.9643    0.2900    0.0000 C   0  0  0  0  0  0  0  0  0  0  0  0
   12.6787    1.5275    0.0000 C   0  0  0  0  0  0  0  0  0  0  0  0
   11.9643    1.1150    0.0000 C   0  0  0  0  0  0  0  0  0  0  0  0
   12.6787   -0.1225    0.0000 C   0  0  0  0  0  0  0  0  0  0  0  0
   13.3932    0.2900    0.0000 C   0  0  0  0  0  0  0  0  0  0  0  0
   13.3932    1.1150    0.0000 C   0  0  0  0  0  0  0  0  0  0  0  0
   -3.8377    1.8770    0.0000 C   0  0  0  0  0  0  0  0  0  0  0  0
   -4.5521    1.4645    0.0000 C   0  0  0  0  0  0  0  0  0  0  0  0
   -4.5521    0.6394    0.0000 C   0  0  0  0  0  0  0  0  0  0  0  0
   -3.8377    0.2269    0.0000 C   0  0  0  0  0  0  0  0  0  0  0  0
   -3.1232    0.6394    0.0000 C   0  0  0  0  0  0  0  0  0  0  0  0
   -3.1232    1.4645    0.0000 C   0  0  0  0  0  0  0  0  0  0  0  0
   -2.4087    0.2269    0.0000 O   0  0  0  0  0  0  0  0  0  0  0  0
   -1.6943    0.6394    0.0000 C   0  0  0  0  0  0  0  0  0  0  0  0
   -0.9798    0.2269    0.0000 C   0  0  0  0  0  0  0  0  0  0  0  0
   -0.9798   -0.5981    0.0000 O   0  0  0  0  0  0  0  0  0  0  0  0
   -0.2653    0.6394    0.0000 N   0  0  0  0  0  0  0  0  0  0  0  0
    0.4492    0.2269    0.0000 C   0  0  0  0  0  0  0  0  0  0  0  0
    1.2460    0.4405    0.0000 C   0  0  0  0  0  0  0  0  0  0  0  0
    1.4596   -0.3564    0.0000 N   0  0  0  0  0  0  0  0  0  0  0  0
    0.6627   -0.5699    0.0000 C   0  0  0  0  0  0  0  0  0  0  0  0
    0.3271   -1.3236    0.0000 O   0  0  0  0  0  0  0  0  0  0  0  0
    1.9380    0.8898    0.0000 S   0  0  0  0  0  0  0  0  0  0  0  0
    2.5791    0.3706    0.0000 C   0  0  0  0  0  0  0  0  0  0  0  0
    2.2834   -0.3996    0.0000 C   0  0  0  0  0  0  0  0  0  0  0  0
    0.9105    1.1941    0.0000 H   0  0  0  0  0  0  0  0  0  0  0  0
    3.1016    1.0090    0.0000 C   0  0  0  0  0  0  0  0  0  0  0  0
    3.3508    0.0790    0.0000 C   0  0  0  0  0  0  0  0  0  0  0  0
    2.7328   -1.0915    0.0000 C   0  0  0  0  0  0  0  0  0  0  0  0
    3.5566   -1.0483    0.0000 O   0  0  0  0  0  0  0  0  0  0  0  0
    2.3582   -1.8266    0.0000 O   0  0  0  0  0  0  0  0  0  0  0  0
   -3.6638   -2.3961    0.0000 C   0  0  0  0  0  0  0  0  0  0  0  0
   -4.3783   -2.8086    0.0000 C   0  0  0  0  0  0  0  0  0  0  0  0
   -4.3783   -3.6336    0.0000 C   0  0  0  0  0  0  0  0  0  0  0  0
   -3.6638   -4.0461    0.0000 C   0  0  0  0  0  0  0  0  0  0  0  0
   -2.9493   -3.6336    0.0000 C   0  0  0  0  0  0  0  0  0  0  0  0
   -2.9493   -2.8086    0.0000 C   0  0  0  0  0  0  0  0  0  0  0  0
   -2.2349   -4.0461    0.0000 O   0  0  0  0  0  0  0  0  0  0  0  0
   -1.5204   -3.6336    0.0000 C   0  0  0  0  0  0  0  0  0  0  0  0
   -0.8059   -4.0461    0.0000 C   0  0  0  0  0  0  0  0  0  0  0  0
   -0.8059   -4.8711    0.0000 O   0  0  0  0  0  0  0  0  0  0  0  0
   -0.0915   -3.6336    0.0000 N   0  0  0  0  0  0  0  0  0  0  0  0
    0.6230   -4.0461    0.0000 C   0  0  0  0  0  0  0  0  0  0  0  0
    1.4199   -3.8326    0.0000 C   0  0  0  0  0  0  0  0  0  0  0  0
    1.6334   -4.6295    0.0000 N   0  0  0  0  0  0  0  0  0  0  0  0
    0.8365   -4.8430    0.0000 C   0  0  0  0  0  0  0  0  0  0  0  0
    0.5010   -5.5967    0.0000 O   0  0  0  0  0  0  0  0  0  0  0  0
    2.1118   -3.3832    0.0000 S   0  0  0  0  0  0  0  0  0  0  0  0
    2.7529   -3.9024    0.0000 C   0  0  0  0  0  0  0  0  0  0  0  0
    2.4573   -4.6726    0.0000 C   0  0  0  0  0  0  0  0  0  0  0  0
    1.0843   -3.0789    0.0000 H   0  0  0  0  0  0  0  0  0  0  0  0
    3.2755   -3.2640    0.0000 C   0  0  0  0  0  0  0  0  0  0  0  0
    3.5247   -4.1941    0.0000 C   0  0  0  0  0  0  0  0  0  0  0  0
    2.9066   -5.3645    0.0000 C   0  0  0  0  0  0  0  0  0  0  0  0
    3.7305   -5.3214    0.0000 O   0  0  0  0  0  0  0  0  0  0  0  0
    2.5321   -6.0996    0.0000 O   0  0  0  0  0  0  0  0  0  0  0  0
  1  2  1  0
  2  3  2  0
  3  4  1  0
  4  5  2  0
  5  6  1  0
  1  6  2  0
  7  8  1  0
  8  9  1  0
  9 10  1  0
 10 11  1  0
 11 12  1  0
 12 13  1  0
  6  7  1  0
 14 15  1  0
 16 17  2  0
 17 18  1  0
 14 18  2  0
 15 13  2  0
 13 16  1  0
 19 20  1  0
 20 21  2  0
 21 22  1  0
 22 23  2  0
 23 24  1  0
 19 24  2  0
 23 25  1  0
 25 26  1  0
 26 27  1  0
 27 28  2  0
 27 29  1  0
 30 29  1  1
 30 31  1  0
 31 32  1  0
 30 33  1  0
 33 32  1  0
 33 34  2  0
 31 35  1  0
 35 36  1  0
 36 37  1  0
 37 32  1  0
 31 38  1  6
 36 39  1  0
 36 40  1  0
 37 41  1  6
 41 42  2  0
 41 43  1  0
 44 45  1  0
 45 46  2  0
 46 47  1  0
 47 48  2  0
 48 49  1  0
 44 49  2  0
 48 50  1  0
 50 51  1  0
 51 52  1  0
 52 53  2  0
 52 54  1  0
 55 54  1  1
 55 56  1  0
 56 57  1  0
 55 58  1  0
 58 57  1  0
 58 59  2  0
 56 60  1  0
 60 61  1  0
 61 62  1  0
 62 57  1  0
 56 63  1  6
 61 64  1  0
 61 65  1  0
 62 66  1  6
 66 67  2  0
 66 68  1  0
M  END

> <chembl_id>
CHEMBL1396177

> <chembl_pref_name>
PENICILLIN V BENZATHINE

$$$$

     RDKit          2D

 38 40  0  0  0  0  0  0  0  0999 V2000
   -5.5688   -1.4732    0.0000 Na  0  0  0  0  0 15  0  0  0  0  0  0
   -6.7664    1.3590    0.0000 N   0  0  0  0  0  0  0  0  0  0  0  0
   -7.5914    1.3590    0.0000 C   0  0  0  0  0  0  0  0  0  0  0  0
   -7.5914    0.5340    0.0000 C   0  0  0  0  0  0  0  0  0  0  0  0
   -6.7664    0.5340    0.0000 C   0  0  0  0  0  0  0  0  0  0  0  0
   -5.9818    0.2791    0.0000 S   0  0  0  0  0  0  0  0  0  0  0  0
   -5.4969    0.9465    0.0000 C   0  0  0  0  0  0  0  0  0  0  0  0
   -5.9817    1.6139    0.0000 C   0  0  0  0  0  0  0  0  0  0  0  0
   -8.1747    1.9424    0.0000 O   0  0  0  0  0  0  0  0  0  0  0  0
   -6.7664   -0.2910    0.0000 H   0  0  0  0  0  0  0  0  0  0  0  0
   -5.7268    2.3985    0.0000 C   0  0  0  0  0  0  0  0  0  0  0  0
   -6.2788    3.0116    0.0000 O   0  0  0  0  0  0  0  0  0  0  0  0
   -4.9198    2.5700    0.0000 O   0  0  0  0  0  0  0  0  0  0  0  0
   -8.4164    0.5340    0.0000 N   0  0  0  0  0  0  0  0  0  0  0  0
   -4.9135    1.5299    0.0000 C   0  0  0  0  0  0  0  0  0  0  0  0
   -4.7824    0.5340    0.0000 C   0  0  0  0  0  0  0  0  0  0  0  0
   -9.1308    0.9465    0.0000 C   0  0  0  0  0  0  0  0  0  0  0  0
   -9.8453    0.5340    0.0000 C   0  0  0  0  0  0  0  0  0  0  0  0
   -9.1308    1.7715    0.0000 O   0  0  0  0  0  0  0  0  0  0  0  0
  -10.5598    0.9465    0.0000 N   0  0  0  0  0  0  0  0  0  0  0  0
  -11.2742    0.5340    0.0000 C   0  0  0  0  0  0  0  0  0  0  0  0
   -9.8453   -0.2910    0.0000 C   0  0  0  0  0  0  0  0  0  0  0  0
  -11.9887    0.9465    0.0000 N   0  0  0  0  0  0  0  0  0  0  0  0
  -11.2742   -0.2910    0.0000 O   0  0  0  0  0  0  0  0  0  0  0  0
  -12.2844    1.7167    0.0000 C   0  0  0  0  0  0  0  0  0  0  0  0
  -13.1082    1.6735    0.0000 C   0  0  0  0  0  0  0  0  0  0  0  0
  -13.3217    0.8766    0.0000 N   0  0  0  0  0  0  0  0  0  0  0  0
  -12.6299    0.4273    0.0000 C   0  0  0  0  0  0  0  0  0  0  0  0
  -14.0919    0.5810    0.0000 S   0  0  0  0  0  0  0  0  0  0  0  0
  -14.2210   -0.2339    0.0000 O   0  0  0  0  0  0  0  0  0  0  0  0
  -14.5044    1.2954    0.0000 C   0  0  0  0  0  0  0  0  0  0  0  0
  -13.5086   -0.0024    0.0000 O   0  0  0  0  0  0  0  0  0  0  0  0
  -10.5598   -0.7035    0.0000 C   0  0  0  0  0  0  0  0  0  0  0  0
  -10.5598   -1.5285    0.0000 C   0  0  0  0  0  0  0  0  0  0  0  0
   -9.8453   -1.9410    0.0000 C   0  0  0  0  0  0  0  0  0  0  0  0
   -9.1308   -1.5285    0.0000 C   0  0  0  0  0  0  0  0  0  0  0  0
   -9.1308   -0.7035    0.0000 C   0  0  0  0  0  0  0  0  0  0  0  0
  -12.5867   -0.3965    0.0000 O   0  0  0  0  0  0  0  0  0  0  0  0
  2  3  1  0
  3  4  1  0
  4  5  1  0
  5  6  1  0
  2  5  1  0
  2  8  1  0
  6  7  1  0
  7  8  1  0
  3  9  2  0
  5 10  1  1
  8 11  1  1
 11 12  1  0
 11 13  2  0
  4 14  1  6
  7 15  1  0
  7 16  1  0
 14 17  1  0
 17 18  1  0
 17 19  2  0
 18 20  1  0
 20 21  1  0
 18 22  1  1
 21 23  1  0
 21 24  2  0
 23 25  1  0
 23 28  1  0
 25 26  1  0
 26 27  1  0
 27 28  1  0
 27 29  1  0
 29 30  2  0
 29 31  1  0
 29 32  2  0
 22 33  1  0
 22 37  2  0
 33 34  2  0
 34 35  1  0
 35 36  2  0
 36 37  1  0
 28 38  2  0
M  CHG  2   1   1  12  -1
M  END

> <chembl_id>
CHEMBL1697708

> <chembl_pref_name>
MEZLOCILLIN SODIUM

$$$$

     RDKit          2D

 32 35  0  0  1  0  0  0  0  0999 V2000
    0.0000   -2.1556    0.0000 Cl  0  0  0  0  0  0  0  0  0  0  0  0
    6.7522   -1.6960    0.0000 S   0  0  0  0  0  0  0  0  0  0  0  0
    2.4330   -0.7053    0.0000 F   0  0  0  0  0  0  0  0  0  0  0  0
    4.5411   -3.3602    0.0000 O   0  0  0  0  0  0  0  0  0  0  0  0
    6.4827   -4.6124    0.0000 O   0  0  0  0  0  0  0  0  0  0  0  0
    7.9251   -4.1210    0.0000 O   0  0  0  0  0  0  0  0  0  0  0  0
    3.3840   -0.8242    0.0000 O   0  0  0  0  0  0  0  0  0  0  0  0
    2.3300   -3.0353    0.0000 O   0  0  0  0  0  0  0  0  0  0  0  0
    5.9596   -2.8292    0.0000 N   0  0  0  0  0  0  0  0  0  0  0  0
    4.4618   -1.5295    0.0000 N   0  0  0  0  0  0  0  0  0  0  0  0
    1.6643   -2.5836    0.0000 N   0  0  0  0  0  0  0  0  0  0  0  0
    5.9596   -1.9416    0.0000 C   0  0  0  0  0  0  0  0  0  0  0  0
    5.0642   -1.9416    0.0000 C   0  0  0  0  0  0  0  0  0  0  0  0
    5.0642   -2.8292    0.0000 C   0  0  0  0  0  0  0  0  0  0  0  0
    6.7522   -3.0908    0.0000 C   0  0  0  0  0  0  0  0  0  0  0  0
    7.2594   -2.3855    0.0000 C   0  0  0  0  0  0  0  0  0  0  0  0
    7.0612   -3.9467    0.0000 C   0  0  0  0  0  0  0  0  0  0  0  0
    3.6693   -1.5295    0.0000 C   0  0  0  0  0  0  0  0  0  0  0  0
    7.5764   -1.5692    0.0000 C   0  0  0  0  0  0  0  0  0  0  0  0
    7.9251   -2.9560    0.0000 C   0  0  0  0  0  0  0  0  0  0  0  0
    2.9798   -1.9416    0.0000 C   0  0  0  0  0  0  0  0  0  0  0  0
    1.6643   -1.9416    0.0000 C   0  0  0  0  0  0  0  0  0  0  0  0
    2.9798   -2.5836    0.0000 C   0  0  0  0  0  0  0  0  0  0  0  0
    1.2205   -1.4107    0.0000 C   0  0  0  0  0  0  0  0  0  0  0  0
    0.4041   -1.4107    0.0000 C   0  0  0  0  0  0  0  0  0  0  0  0
    1.6326   -0.7053    0.0000 C   0  0  0  0  0  0  0  0  0  0  0  0
    3.5425   -2.9957    0.0000 C   0  0  0  0  0  0  0  0  0  0  0  0
    0.0000   -0.7212    0.0000 C   0  0  0  0  0  0  0  0  0  0  0  0
    1.2046    0.0000    0.0000 C   0  0  0  0  0  0  0  0  0  0  0  0
    0.4041    0.0000    0.0000 C   0  0  0  0  0  0  0  0  0  0  0  0
    5.9438   -1.1729    0.0000 H   0  0  0  0  0  0  0  0  0  0  0  0
    5.0404   -1.1333    0.0000 H   0  0  0  0  0  0  0  0  0  0  0  0
  1 25  1  0
 12  2  1  1
  2 16  1  0
  3 26  1  0
  4 14  2  0
  5 17  1  0
  6 17  2  0
  7 18  2  0
  8 11  1  0
  8 23  1  0
  9 12  1  0
  9 14  1  0
  9 15  1  0
 13 10  1  1
 10 18  1  0
 11 22  2  0
 12 13  1  0
 12 31  1  6
 13 14  1  0
 13 32  1  6
 15 16  1  0
 15 17  1  6
 16 19  1  0
 16 20  1  0
 18 21  1  0
 21 22  1  0
 21 23  2  0
 22 24  1  0
 23 27  1  0
 24 25  1  0
 24 26  2  0
 25 28  2  0
 26 29  1  0
 28 30  1  0
 29 30  2  0
M  END

> <chembl_id>
CHEMBL222645

> <chembl_pref_name>
FLOXACILLIN

$$$$

     RDKit          2D

 26 28  0  0  0  0  0  0  0  0999 V2000
    0.5625  -23.8250    0.0000 S   0  0  0  0  0  0  0  0  0  0  0  0
    1.3875  -23.8250    0.0000 C   0  0  0  0  0  0  0  0  0  0  0  0
    1.6443  -23.0409    0.0000 C   0  0  0  0  0  0  0  0  0  0  0  0
    0.9750  -22.5542    0.0000 C   0  0  0  0  0  0  0  0  0  0  0  0
    0.3099  -23.0409    0.0000 C   0  0  0  0  0  0  0  0  0  0  0  0
    2.4292  -22.7871    0.0000 C   0  0  0  0  0  0  0  0  0  0  0  0
    3.0416  -23.3399    0.0000 C   0  0  0  0  0  0  0  0  0  0  0  0
    2.6019  -21.9803    0.0000 C   0  0  0  0  0  0  0  0  0  0  0  0
    3.3869  -21.7253    0.0000 O   0  0  0  0  0  0  0  0  0  0  0  0
    1.9896  -21.4263    0.0000 O   0  0  0  0  0  0  0  0  0  0  0  0
    2.8689  -24.1467    0.0000 O   0  0  0  0  0  0  0  0  0  0  0  0
    3.8265  -23.0861    0.0000 N   0  0  0  0  0  0  0  0  0  0  0  0
    4.4389  -23.6390    0.0000 C   0  0  0  0  0  0  0  0  0  0  0  0
    4.4793  -24.4613    0.0000 C   0  0  0  0  0  0  0  0  0  0  0  0
    3.9258  -25.0731    0.0000 O   0  0  0  0  0  0  0  0  0  0  0  0
    5.2612  -23.5954    0.0000 C   0  0  0  0  0  0  0  0  0  0  0  0
    5.3058  -24.4156    0.0000 N   0  0  0  0  0  0  0  0  0  0  0  0
    6.0997  -24.6266    0.0000 C   0  0  0  0  0  0  0  0  0  0  0  0
    6.5458  -23.9367    0.0000 C   0  0  0  0  0  0  0  0  0  0  0  0
    6.0275  -23.2995    0.0000 S   0  0  0  0  0  0  0  0  0  0  0  0
    6.3971  -25.3965    0.0000 C   0  0  0  0  0  0  0  0  0  0  0  0
    5.8792  -26.0387    0.0000 O   0  0  0  0  0  0  0  0  0  0  0  0
    7.2122  -25.5240    0.0000 O   0  0  0  0  0  0  0  0  0  0  0  0
    6.9500  -23.2167    0.0000 C   0  0  0  0  0  0  0  0  0  0  0  0
    7.2542  -24.3458    0.0000 C   0  0  0  0  0  0  0  0  0  0  0  0
    5.2542  -22.7667    0.0000 H   0  0  0  0  0  0  0  0  0  0  0  0
 13 12  1  1
 13 14  1  0
 14 17  1  0
 16 13  1  0
  6  7  1  0
 14 15  2  0
 16 17  1  0
  2  3  2  0
  6  8  1  1
  3  4  1  0
  4  5  2  0
  8  9  1  0
 17 18  1  0
 18 19  1  0
 19 20  1  0
 20 16  1  0
  8 10  2  0
  5  1  1  0
  7 11  2  0
 21 22  1  0
 21 23  2  0
 18 21  1  6
  1  2  1  0
 19 24  1  0
  7 12  1  0
 19 25  1  0
  3  6  1  0
 16 26  1  6
M  END

> <chembl_id>
CHEMBL1449

> <chembl_pref_name>
TICARCILLIN

$$$$

     RDKit          2D

 28 30  0  0  0  0  0  0  0  0999 V2000
   13.1443   -9.6460    0.0000 N   0  0  0  0  0  0  0  0  0  0  0  0
   13.9315   -9.8927    0.0000 C   0  0  0  0  0  0  0  0  0  0  0  0
   14.4110   -9.2213    0.0000 C   0  0  0  0  0  0  0  0  0  0  0  0
   13.9179   -8.5567    0.0000 S   0  0  0  0  0  0  0  0  0  0  0  0
   13.1378   -8.8222    0.0000 C   0  0  0  0  0  0  0  0  0  0  0  0
   12.3167   -9.6417    0.0000 C   0  0  0  0  0  0  0  0  0  0  0  0
   12.3125   -8.8167    0.0000 C   0  0  0  0  0  0  0  0  0  0  0  0
   14.9917   -8.6333    0.0000 C   0  0  0  0  0  0  0  0  0  0  0  0
   14.9917   -9.8042    0.0000 C   0  0  0  0  0  0  0  0  0  0  0  0
   14.1937  -10.6750    0.0000 C   0  0  0  0  0  0  0  0  0  0  0  0
   15.0167  -10.6708    0.0000 O   0  0  0  0  0  0  0  0  0  0  0  0
   13.7136  -11.3458    0.0000 O   0  0  0  0  0  0  0  0  0  0  0  0
   13.1333   -7.9958    0.0000 H   0  0  0  0  0  0  0  0  0  0  0  0
   11.7305   -8.2326    0.0000 N   0  0  0  0  0  0  0  0  0  0  0  0
   12.3083   -7.9917    0.0000 O   0  0  0  0  0  0  0  0  0  0  0  0
   13.0207   -7.5756    0.0000 C   0  0  0  0  0  0  0  0  0  0  0  0
   11.0104   -8.6351    0.0000 C   0  0  0  0  0  0  0  0  0  0  0  0
   10.3017   -8.2126    0.0000 C   0  0  0  0  0  0  0  0  0  0  0  0
   10.9989   -9.4600    0.0000 O   0  0  0  0  0  0  0  0  0  0  0  0
   10.3132   -7.3877    0.0000 C   0  0  0  0  0  0  0  0  0  0  0  0
   11.0334   -6.9852    0.0000 O   0  0  0  0  0  0  0  0  0  0  0  0
    9.6046   -6.9653    0.0000 O   0  0  0  0  0  0  0  0  0  0  0  0
    9.5816   -8.6151    0.0000 C   0  0  0  0  0  0  0  0  0  0  0  0
    8.8335   -8.2741    0.0000 C   0  0  0  0  0  0  0  0  0  0  0  0
    8.2730   -8.8795    0.0000 S   0  0  0  0  0  0  0  0  0  0  0  0
    8.6755   -9.5997    0.0000 C   0  0  0  0  0  0  0  0  0  0  0  0
    9.4848   -9.4393    0.0000 C   0  0  0  0  0  0  0  0  0  0  0  0
   11.7332  -10.2250    0.0000 O   0  0  0  0  0  0  0  0  0  0  0  0
  1  6  1  0
  7 14  1  0
  7 15  1  6
  6  7  1  0
 15 16  1  0
  2  3  1  0
 14 17  1  0
  3  8  1  0
 17 18  1  0
  3  4  1  0
 17 19  2  0
  3  9  1  0
 18 20  1  0
  4  5  1  0
 20 21  1  0
  2 10  1  6
 20 22  2  0
  5  1  1  0
 18 23  1  0
 23 24  2  0
 10 11  1  0
  5  7  1  0
 10 12  2  0
  1  2  1  0
 24 25  1  0
 25 26  1  0
 26 27  2  0
 27 23  1  0
  5 13  1  6
  6 28  2  0
M  END

> <chembl_id>
CHEMBL1276310

> <chembl_pref_name>
TEMOCILLIN

$$$$

     RDKit          2D

 25 27  0  0  1  0  0  0  0  0999 V2000
    2.2720   -4.6360    0.0000 N   0  0  0  0  0  0  0  0  0  0  0  0
    2.2720   -5.4547    0.0000 C   0  0  0  0  0  0  0  0  0  0  0  0
    1.4436   -4.6360    0.0000 C   0  0  0  0  0  0  0  0  0  0  0  0
    1.4436   -5.4547    0.0000 C   0  0  0  0  0  0  0  0  0  0  0  0
    3.0713   -4.3744    0.0000 C   0  0  0  0  0  0  0  0  0  0  0  0
    3.0713   -5.7114    0.0000 S   0  0  0  0  0  0  0  0  0  0  0  0
    3.5460   -5.0574    0.0000 C   0  0  0  0  0  0  0  0  0  0  0  0
    3.7495   -3.8948    0.0000 C   0  0  0  0  0  0  0  0  0  0  0  0
    0.4699   -5.2658    0.0000 N   0  0  0  0  0  0  0  0  0  0  0  0
   -0.2471   -4.9170    0.0000 C   0  0  0  0  0  0  0  0  0  0  0  0
    0.9737   -3.9287    0.0000 O   0  0  0  0  0  0  0  0  0  0  0  0
    3.6671   -3.0713    0.0000 O   0  0  0  0  0  0  0  0  0  0  0  0
    4.5391   -3.9869    0.0000 O   0  0  0  0  0  0  0  0  0  0  0  0
   -0.2471   -4.2339    0.0000 O   0  0  0  0  0  0  0  0  0  0  0  0
   -1.6809   -4.8734    0.0000 O   0  0  0  0  0  0  0  0  0  0  0  0
   -0.9833   -5.3094    0.0000 C   0  0  0  0  0  0  0  0  0  0  0  0
    4.2049   -5.5515    0.0000 C   0  0  0  0  0  0  0  0  0  0  0  0
    4.2485   -4.6360    0.0000 C   0  0  0  0  0  0  0  0  0  0  0  0
   -2.3979   -5.2512    0.0000 C   0  0  0  0  0  0  0  0  0  0  0  0
   -2.4076   -6.0796    0.0000 C   0  0  0  0  0  0  0  0  0  0  0  0
   -3.1051   -4.8152    0.0000 C   0  0  0  0  0  0  0  0  0  0  0  0
   -3.1633   -6.4671    0.0000 C   0  0  0  0  0  0  0  0  0  0  0  0
   -3.8172   -5.2173    0.0000 C   0  0  0  0  0  0  0  0  0  0  0  0
   -3.8463   -6.0215    0.0000 C   0  0  0  0  0  0  0  0  0  0  0  0
    2.1172   -6.4427    0.0000 H   0  0  0  0  0  0  0  0  0  0  0  0
  2  1  1  0
  3  1  1  0
  4  3  1  0
  5  1  1  0
  6  2  1  0
  7  5  1  0
  5  8  1  1
  4  9  1  6
 10  9  1  0
 11  3  2  0
 12  8  1  0
 13  8  2  0
 14 10  2  0
 15 16  1  0
 16 10  1  0
 17  7  1  0
 18  7  1  0
 19 15  1  0
 20 19  1  0
 21 19  2  0
 22 20  2  0
 23 21  1  0
 24 23  2  0
  7  6  1  0
  4  2  1  0
 24 22  1  0
  2 25  1  1
M  END

> <chembl_id>
CHEMBL615

> <chembl_pref_name>
PENICILLIN V

$$$$

     RDKit          2D

 27 29  0  0  1  0  0  0  0  0999 V2000
    1.9542    0.2458    0.0000 N   0  0  0  0  0  0  0  0  0  0  0  0
    1.9542   -0.6375    0.0000 C   0  0  0  0  0  0  0  0  0  0  0  0
    1.0667    0.2458    0.0000 C   0  0  0  0  0  0  0  0  0  0  0  0
    1.0667   -0.6375    0.0000 C   0  0  0  0  0  0  0  0  0  0  0  0
    2.7750    0.5208    0.0000 C   0  0  0  0  0  0  0  0  0  0  0  0
    2.7750   -0.8875    0.0000 S   0  0  0  0  0  0  0  0  0  0  0  0
    3.2792   -0.1792    0.0000 C   0  0  0  0  0  0  0  0  0  0  0  0
    0.2500   -0.4000    0.0000 N   0  0  0  0  0  0  0  0  0  0  0  0
   -0.3750   -1.0042    0.0000 C   0  0  0  0  0  0  0  0  0  0  0  0
    3.5000    1.0333    0.0000 C   0  0  0  0  0  0  0  0  0  0  0  0
    0.6667    0.9833    0.0000 O   0  0  0  0  0  0  0  0  0  0  0  0
   -1.2208   -0.7292    0.0000 C   0  0  0  0  0  0  0  0  0  0  0  0
   -1.8458   -1.3167    0.0000 O   0  0  0  0  0  0  0  0  0  0  0  0
   -0.1833   -1.8292    0.0000 O   0  0  0  0  0  0  0  0  0  0  0  0
    3.4000    1.8958    0.0000 O   0  0  0  0  0  0  0  0  0  0  0  0
    4.2792    0.6583    0.0000 O   0  0  0  0  0  0  0  0  0  0  0  0
    3.9917   -0.7125    0.0000 C   0  0  0  0  0  0  0  0  0  0  0  0
    4.0292    0.2458    0.0000 C   0  0  0  0  0  0  0  0  0  0  0  0
   -2.6625   -1.0792    0.0000 C   0  0  0  0  0  0  0  0  0  0  0  0
   -1.4125    0.0833    0.0000 C   0  0  0  0  0  0  0  0  0  0  0  0
   -2.8833   -0.2167    0.0000 C   0  0  0  0  0  0  0  0  0  0  0  0
   -3.3125   -1.6667    0.0000 C   0  0  0  0  0  0  0  0  0  0  0  0
   -0.7833    0.6958    0.0000 C   0  0  0  0  0  0  0  0  0  0  0  0
   -3.7000    0.0083    0.0000 C   0  0  0  0  0  0  0  0  0  0  0  0
   -4.1333   -1.4375    0.0000 C   0  0  0  0  0  0  0  0  0  0  0  0
   -4.3458   -0.5917    0.0000 C   0  0  0  0  0  0  0  0  0  0  0  0
    1.8069   -1.6266    0.0000 H   0  0  0  0  0  0  0  0  0  0  0  0
  2  1  1  0
  3  1  1  0
  4  3  1  0
  5  1  1  0
  6  2  1  0
  7  5  1  0
  4  8  1  6
  9  8  1  0
  5 10  1  1
 11  3  2  0
 12  9  1  0
 13 12  1  0
 14  9  2  0
 15 10  2  0
 16 10  1  0
 17  7  1  0
 18  7  1  0
 19 13  1  0
 20 12  1  0
 21 19  1  0
 22 19  2  0
 23 20  1  0
 24 21  2  0
 25 22  1  0
 26 25  2  0
  6  7  1  0
  2  4  1  0
 24 26  1  0
  2 27  1  1
M  END

> <chembl_id>
CHEMBL2105612

> <chembl_pref_name>
PROPICILLIN

$$$$

     RDKit          2D

 37 40  0  0  0  0  0  0  0  0999 V2000
   13.3292   -3.3458    0.0000 Na  0  0  0  0  0 15  0  0  0  0  0  0
   11.0125   -2.0208    0.0000 N   0  0  0  0  0  0  0  0  0  0  0  0
   11.0125   -1.3125    0.0000 C   0  0  0  0  0  0  0  0  0  0  0  0
   10.3000   -2.0250    0.0000 C   0  0  0  0  0  0  0  0  0  0  0  0
   10.3000   -1.3125    0.0000 C   0  0  0  0  0  0  0  0  0  0  0  0
   11.6875   -2.2375    0.0000 C   0  0  0  0  0  0  0  0  0  0  0  0
   11.6833   -1.0917    0.0000 S   0  0  0  0  0  0  0  0  0  0  0  0
   12.1042   -1.6625    0.0000 C   0  0  0  0  0  0  0  0  0  0  0  0
    9.0667   -1.3125    0.0000 C   0  0  0  0  0  0  0  0  0  0  0  0
    9.6792   -0.9542    0.0000 N   0  0  0  0  0  0  0  0  0  0  0  0
    7.8417   -1.3125    0.0000 C   0  0  0  0  0  0  0  0  0  0  0  0
    8.4542   -0.9583    0.0000 C   0  0  0  0  0  0  0  0  0  0  0  0
   11.6792   -2.9417    0.0000 C   0  0  0  0  0  0  0  0  0  0  0  0
    7.2292   -0.9583    0.0000 O   0  0  0  0  0  0  0  0  0  0  0  0
    9.8000   -2.5250    0.0000 O   0  0  0  0  0  0  0  0  0  0  0  0
    5.3917   -1.3167    0.0000 C   0  0  0  0  0  0  0  0  0  0  0  0
    9.0667   -2.0208    0.0000 O   0  0  0  0  0  0  0  0  0  0  0  0
    7.8417   -2.0208    0.0000 O   0  0  0  0  0  0  0  0  0  0  0  0
    6.6125   -1.3125    0.0000 C   0  0  0  0  0  0  0  0  0  0  0  0
   12.2917   -3.3042    0.0000 O   0  0  0  0  0  0  0  0  0  0  0  0
    6.0042   -0.9583    0.0000 C   0  0  0  0  0  0  0  0  0  0  0  0
    8.4542   -0.2500    0.0000 C   0  0  0  0  0  0  0  0  0  0  0  0
    5.3917   -2.0250    0.0000 C   0  0  0  0  0  0  0  0  0  0  0  0
   11.0625   -3.2917    0.0000 O   0  0  0  0  0  0  0  0  0  0  0  0
    6.0042   -2.3792    0.0000 C   0  0  0  0  0  0  0  0  0  0  0  0
    6.6167   -2.0250    0.0000 C   0  0  0  0  0  0  0  0  0  0  0  0
   12.7167   -1.3042    0.0000 C   0  0  0  0  0  0  0  0  0  0  0  0
   12.7167   -2.0167    0.0000 C   0  0  0  0  0  0  0  0  0  0  0  0
    4.7167   -1.0958    0.0000 C   0  0  0  0  0  0  0  0  0  0  0  0
    4.3000   -1.6667    0.0000 C   0  0  0  0  0  0  0  0  0  0  0  0
    4.7167   -2.2417    0.0000 C   0  0  0  0  0  0  0  0  0  0  0  0
    9.0708    0.1042    0.0000 C   0  0  0  0  0  0  0  0  0  0  0  0
    7.8458    0.1000    0.0000 C   0  0  0  0  0  0  0  0  0  0  0  0
    7.8417    0.8083    0.0000 C   0  0  0  0  0  0  0  0  0  0  0  0
    9.0708    0.8125    0.0000 C   0  0  0  0  0  0  0  0  0  0  0  0
    8.4583    1.1667    0.0000 C   0  0  0  0  0  0  0  0  0  0  0  0
   11.0042   -0.6042    0.0000 H   0  0  0  0  0  0  0  0  0  0  0  0
  3  2  1  0
  4  2  1  0
  5  4  1  0
  6  2  1  0
  7  3  1  0
  8  6  1  0
  9 10  1  0
  5 10  1  1
 11 12  1  0
 12  9  1  0
  6 13  1  6
 14 11  1  0
 15  4  2  0
 16 21  1  0
 17  9  2  0
 18 11  2  0
 19 14  1  0
 20 13  1  0
 21 19  2  0
 22 12  1  0
 23 16  2  0
 24 13  2  0
 25 26  2  0
 26 19  1  0
 27  8  1  0
 28  8  1  0
 29 16  1  0
 30 29  1  0
 31 23  1  0
 32 22  2  0
 33 22  1  0
 34 33  2  0
 35 32  1  0
 36 34  1  0
  3 37  1  6
  5  3  1  0
  7  8  1  0
 36 35  2  0
 25 23  1  0
 31 30  1  0
M  CHG  2   1   1  20  -1
M  END

> <chembl_id>
CHEMBL1200991

> <chembl_pref_name>
CARBENICILLIN INDANYL SODIUM

$$$$

     RDKit          2D

 24 26  0  0  1  0  0  0  0  0999 V2000
    4.4028    0.2427    0.0000 N   0  0  0  0  0  0  0  0  0  0  0  0
    2.9467    0.5893    0.0000 C   0  0  0  0  0  0  0  0  0  0  0  0
    4.0387   -1.2480    0.0000 C   0  0  0  0  0  0  0  0  0  0  0  0
    2.5654   -0.9014    0.0000 C   0  0  0  0  0  0  0  0  0  0  0  0
    5.1654    1.5080    0.0000 C   0  0  0  0  0  0  0  0  0  0  0  0
    2.8254    2.0454    0.0000 S   0  0  0  0  0  0  0  0  0  0  0  0
    4.1948    2.6347    0.0000 C   0  0  0  0  0  0  0  0  0  0  0  0
    1.2905   -1.6806    0.0000 N   0  0  0  0  0  0  0  0  0  0  0  0
    6.6590    1.6292    0.0000 C   0  0  0  0  0  0  0  0  0  0  0  0
    1.3272   -3.1809    0.0000 C   0  0  0  0  0  0  0  0  0  0  0  0
    4.6661   -2.2710    0.0000 O   0  0  0  0  0  0  0  0  0  0  0  0
    7.1727    2.7136    0.0000 O   0  0  0  0  0  0  0  0  0  0  0  0
    7.3417    0.6422    0.0000 O   0  0  0  0  0  0  0  0  0  0  0  0
    2.3809   -3.7550    0.0000 O   0  0  0  0  0  0  0  0  0  0  0  0
    0.0467   -3.9637    0.0000 C   0  0  0  0  0  0  0  0  0  0  0  0
    5.3472    2.9691    0.0000 C   0  0  0  0  0  0  0  0  0  0  0  0
    3.3052    3.4401    0.0000 C   0  0  0  0  0  0  0  0  0  0  0  0
    0.0833   -5.4641    0.0000 C   0  0  0  0  0  0  0  0  0  0  0  0
   -1.1954   -6.2483    0.0000 C   0  0  0  0  0  0  0  0  0  0  0  0
    1.4018   -6.1795    0.0000 C   0  0  0  0  0  0  0  0  0  0  0  0
   -1.1556   -7.7478    0.0000 C   0  0  0  0  0  0  0  0  0  0  0  0
    1.4415   -7.6790    0.0000 C   0  0  0  0  0  0  0  0  0  0  0  0
    0.1628   -8.4631    0.0000 C   0  0  0  0  0  0  0  0  0  0  0  0
    1.9502    0.6729    0.0000 H   0  0  0  0  0  0  0  0  0  0  0  0
  2  1  1  0
  3  1  1  0
  4  3  1  0
  5  1  1  0
  6  2  1  0
  7  5  1  0
  4  8  1  1
  5  9  1  6
 10  8  1  0
 11  3  2  0
 12  9  1  0
 13  9  2  0
 14 10  2  0
 15 10  1  0
 16  7  1  0
 17  7  1  0
 18 15  1  0
 19 18  1  0
 20 18  2  0
 21 19  2  0
 22 20  1  0
 23 21  1  0
  2 24  1  6
  6  7  1  0
  2  4  1  0
 22 23  2  0
M  END

> <chembl_id>
CHEMBL29

> <chembl_pref_name>
BENZYLPENICILLIN

$$$$

     RDKit          2D

 30 33  0  0  1  0  0  0  0  0999 V2000
    2.8333   -7.4583    0.0000 N   0  0  0  0  0  0  0  0  0  0  0  0
    2.8292   -6.7500    0.0000 C   0  0  0  0  0  0  0  0  0  0  0  0
    2.1250   -7.4625    0.0000 C   0  0  0  0  0  0  0  0  0  0  0  0
    2.1250   -6.7500    0.0000 C   0  0  0  0  0  0  0  0  0  0  0  0
    3.5083   -7.6750    0.0000 C   0  0  0  0  0  0  0  0  0  0  0  0
    3.5042   -6.5292    0.0000 S   0  0  0  0  0  0  0  0  0  0  0  0
    0.8875   -6.7500    0.0000 C   0  0  0  0  0  0  0  0  0  0  0  0
    3.9250   -7.1000    0.0000 C   0  0  0  0  0  0  0  0  0  0  0  0
    1.5042   -6.3917    0.0000 N   0  0  0  0  0  0  0  0  0  0  0  0
    0.2750   -6.3958    0.0000 C   0  0  0  0  0  0  0  0  0  0  0  0
    3.5042   -8.3792    0.0000 C   0  0  0  0  0  0  0  0  0  0  0  0
   -0.3333   -6.7500    0.0000 C   0  0  0  0  0  0  0  0  0  0  0  0
    1.6208   -7.9625    0.0000 O   0  0  0  0  0  0  0  0  0  0  0  0
    0.2792   -5.6833    0.0000 C   0  0  0  0  0  0  0  0  0  0  0  0
    0.8875   -7.4583    0.0000 O   0  0  0  0  0  0  0  0  0  0  0  0
    4.1125   -8.7417    0.0000 O   0  0  0  0  0  0  0  0  0  0  0  0
    2.8833   -8.7292    0.0000 O   0  0  0  0  0  0  0  0  0  0  0  0
   -0.9458   -6.3958    0.0000 C   0  0  0  0  0  0  0  0  0  0  0  0
   -0.3333   -5.3292    0.0000 C   0  0  0  0  0  0  0  0  0  0  0  0
   -0.9458   -5.6833    0.0000 C   0  0  0  0  0  0  0  0  0  0  0  0
    4.5375   -7.4542    0.0000 C   0  0  0  0  0  0  0  0  0  0  0  0
    4.5375   -6.7417    0.0000 C   0  0  0  0  0  0  0  0  0  0  0  0
    0.8958   -5.3333    0.0000 O   0  0  0  0  0  0  0  0  0  0  0  0
   -0.3292   -7.4500    0.0000 C   0  0  0  0  0  0  0  0  0  0  0  0
   -1.5542   -6.7500    0.0000 C   0  0  0  0  0  0  0  0  0  0  0  0
    1.5083   -5.6875    0.0000 C   0  0  0  0  0  0  0  0  0  0  0  0
   -0.9333   -7.8042    0.0000 C   0  0  0  0  0  0  0  0  0  0  0  0
    2.1208   -5.3375    0.0000 C   0  0  0  0  0  0  0  0  0  0  0  0
   -1.5500   -7.4583    0.0000 C   0  0  0  0  0  0  0  0  0  0  0  0
    2.8250   -6.0417    0.0000 H   0  0  0  0  0  0  0  0  0  0  0  0
  2  1  1  0
  3  1  1  0
  4  3  1  0
  5  1  1  0
  6  2  1  0
  7  9  1  0
  8  5  1  0
  4  9  1  1
 10  7  1  0
  5 11  1  6
 12 10  1  0
 13  3  2  0
 14 10  2  0
 15  7  2  0
 16 11  1  0
 17 11  2  0
 18 12  1  0
 19 14  1  0
 20 18  1  0
 21  8  1  0
 22  8  1  0
 23 14  1  0
 24 12  2  0
 25 18  2  0
 26 23  1  0
 27 24  1  0
 28 26  1  0
 29 27  2  0
  2 30  1  6
  6  8  1  0
  4  2  1  0
 20 19  2  0
 29 25  1  0
M  END

> <chembl_id>
CHEMBL1443

> <chembl_pref_name>
NAFCILLIN

$$$$

     RDKit          2D

 29 29  0  0  0  0  0  0  0  0999 V2000
    9.3402  -18.6214    0.0000 O   0  0  0  0  0  0  0  0  0  0  0  0
    6.9875  -16.2708    0.0000 N   0  0  0  0  0  0  0  0  0  0  0  0
    6.9792  -17.0958    0.0000 C   0  0  0  0  0  0  0  0  0  0  0  0
    6.1625  -16.2625    0.0000 C   0  0  0  0  0  0  0  0  0  0  0  0
    6.1542  -17.0875    0.0000 C   0  0  0  0  0  0  0  0  0  0  0  0
    7.7708  -16.0250    0.0000 C   0  0  0  0  0  0  0  0  0  0  0  0
    7.7583  -17.3542    0.0000 S   0  0  0  0  0  0  0  0  0  0  0  0
    8.2542  -16.6958    0.0000 C   0  0  0  0  0  0  0  0  0  0  0  0
    4.7250  -17.0833    0.0000 C   0  0  0  0  0  0  0  0  0  0  0  0
    5.4417  -17.4958    0.0000 N   0  0  0  0  0  0  0  0  0  0  0  0
    4.0083  -17.4958    0.0000 C   0  0  0  0  0  0  0  0  0  0  0  0
    8.1917  -15.3167    0.0000 C   0  0  0  0  0  0  0  0  0  0  0  0
    5.5833  -15.6750    0.0000 O   0  0  0  0  0  0  0  0  0  0  0  0
    4.7250  -16.2583    0.0000 O   0  0  0  0  0  0  0  0  0  0  0  0
    3.2917  -17.0792    0.0000 C   0  0  0  0  0  0  0  0  0  0  0  0
    4.0042  -18.3208    0.0000 C   0  0  0  0  0  0  0  0  0  0  0  0
    9.0167  -15.3208    0.0000 O   0  0  0  0  0  0  0  0  0  0  0  0
    7.7875  -14.5917    0.0000 O   0  0  0  0  0  0  0  0  0  0  0  0
    8.8583  -17.2500    0.0000 C   0  0  0  0  0  0  0  0  0  0  0  0
    8.8708  -16.1458    0.0000 C   0  0  0  0  0  0  0  0  0  0  0  0
    3.2958  -16.2542    0.0000 O   0  0  0  0  0  0  0  0  0  0  0  0
    4.7208  -18.7333    0.0000 O   0  0  0  0  0  0  0  0  0  0  0  0
    2.5792  -18.3167    0.0000 C   0  0  0  0  0  0  0  0  0  0  0  0
    3.2875  -18.7292    0.0000 C   0  0  0  0  0  0  0  0  0  0  0  0
    2.5792  -17.4917    0.0000 C   0  0  0  0  0  0  0  0  0  0  0  0
    2.5833  -15.8417    0.0000 C   0  0  0  0  0  0  0  0  0  0  0  0
    4.7208  -19.5583    0.0000 C   0  0  0  0  0  0  0  0  0  0  0  0
    6.9875  -17.9208    0.0000 H   0  0  0  0  0  0  0  0  0  0  0  0
    7.1706  -19.3299    0.0000 Na  0  0  0  0  0 15  0  0  0  0  0  0
  3  2  1  0
  4  2  1  0
  5  3  1  0
  6  2  1  0
  7  3  1  0
  8  6  1  0
  9 10  1  0
  5 10  1  6
 11  9  1  0
  6 12  1  1
 13  4  2  0
 14  9  2  0
 15 11  2  0
 16 11  1  0
 17 12  2  0
 18 12  1  0
 19  8  1  0
 20  8  1  0
 21 15  1  0
 22 16  1  0
 23 25  2  0
 24 16  2  0
 25 15  1  0
 26 21  1  0
 27 22  1  0
  3 28  1  1
  4  5  1  0
  7  8  1  0
 23 24  1  0
M  CHG  2  18  -1  29   1
M  END

> <chembl_id>
CHEMBL3181832

> <chembl_pref_name>
METHICILLIN SODIUM

$$$$

     RDKit          2D

 28 31  0  0  0  0  0  0  0  0999 V2000
   -0.2458   -5.7375    0.0000 N   0  0  0  0  0  0  0  0  0  0  0  0
    1.0833   -6.8000    0.0000 N   0  0  0  0  0  0  0  0  0  0  0  0
    0.3750   -6.0917    0.0000 C   0  0  0  0  0  0  0  0  0  0  0  0
    1.0792   -6.0917    0.0000 C   0  0  0  0  0  0  0  0  0  0  0  0
    0.3750   -6.8000    0.0000 C   0  0  0  0  0  0  0  0  0  0  0  0
   -0.4667   -5.0625    0.0000 C   0  0  0  0  0  0  0  0  0  0  0  0
   -0.8208   -6.1542    0.0000 C   0  0  0  0  0  0  0  0  0  0  0  0
    1.7583   -7.0167    0.0000 C   0  0  0  0  0  0  0  0  0  0  0  0
    1.7542   -5.8708    0.0000 S   0  0  0  0  0  0  0  0  0  0  0  0
   -1.3958   -5.7375    0.0000 N   0  0  0  0  0  0  0  0  0  0  0  0
    2.1750   -6.4417    0.0000 C   0  0  0  0  0  0  0  0  0  0  0  0
   -1.1750   -5.0625    0.0000 C   0  0  0  0  0  0  0  0  0  0  0  0
    1.7542   -7.7250    0.0000 C   0  0  0  0  0  0  0  0  0  0  0  0
   -0.1292   -7.3042    0.0000 O   0  0  0  0  0  0  0  0  0  0  0  0
   -0.0500   -4.4917    0.0000 O   0  0  0  0  0  0  0  0  0  0  0  0
    2.3625   -8.0833    0.0000 O   0  0  0  0  0  0  0  0  0  0  0  0
   -1.7958   -4.7042    0.0000 C   0  0  0  0  0  0  0  0  0  0  0  0
    1.1333   -8.0708    0.0000 O   0  0  0  0  0  0  0  0  0  0  0  0
   -0.4708   -6.7667    0.0000 C   0  0  0  0  0  0  0  0  0  0  0  0
   -1.1833   -6.7667    0.0000 C   0  0  0  0  0  0  0  0  0  0  0  0
    2.7875   -6.7917    0.0000 C   0  0  0  0  0  0  0  0  0  0  0  0
    2.7875   -6.0792    0.0000 C   0  0  0  0  0  0  0  0  0  0  0  0
   -1.7917   -3.9917    0.0000 C   0  0  0  0  0  0  0  0  0  0  0  0
   -2.4083   -5.0625    0.0000 C   0  0  0  0  0  0  0  0  0  0  0  0
   -3.0250   -4.7083    0.0000 C   0  0  0  0  0  0  0  0  0  0  0  0
   -2.4083   -3.6333    0.0000 C   0  0  0  0  0  0  0  0  0  0  0  0
   -3.0292   -3.9917    0.0000 C   0  0  0  0  0  0  0  0  0  0  0  0
    1.0750   -5.3792    0.0000 H   0  0  0  0  0  0  0  0  0  0  0  0
  2  5  1  0
  3  1  1  1
  4  3  1  0
  5  3  1  0
  6  1  1  0
  7  1  1  0
  8  2  1  0
  9  4  1  0
 10  7  1  0
 11  9  1  0
 12  6  1  0
  8 13  1  6
 14  5  2  0
 15  6  2  0
 16 13  1  0
 12 17  1  6
 18 13  2  0
 19  7  1  0
 20  7  1  0
 21 11  1  0
 22 11  1  0
 23 17  2  0
 24 17  1  0
 25 24  2  0
 26 23  1  0
 27 25  1  0
  4 28  1  6
 12 10  1  0
  2  4  1  0
 11  8  1  0
 27 26  2  0
M  END

> <chembl_id>
CHEMBL1201116

> <chembl_pref_name>
HETACILLIN

$$$$

     RDKit          2D

 36 40  0  0  1  0  0  0  0  0999 V2000
   11.0125   -2.0208    0.0000 N   0  0  0  0  0  0  0  0  0  0  0  0
   11.0125   -1.3125    0.0000 C   0  0  0  0  0  0  0  0  0  0  0  0
   10.3000   -2.0250    0.0000 C   0  0  0  0  0  0  0  0  0  0  0  0
   10.3000   -1.3125    0.0000 C   0  0  0  0  0  0  0  0  0  0  0  0
   11.6875   -2.2375    0.0000 C   0  0  0  0  0  0  0  0  0  0  0  0
   11.6833   -1.0917    0.0000 S   0  0  0  0  0  0  0  0  0  0  0  0
   12.1042   -1.6625    0.0000 C   0  0  0  0  0  0  0  0  0  0  0  0
    9.0667   -1.3125    0.0000 C   0  0  0  0  0  0  0  0  0  0  0  0
    9.6792   -0.9542    0.0000 N   0  0  0  0  0  0  0  0  0  0  0  0
    7.8417   -1.3125    0.0000 C   0  0  0  0  0  0  0  0  0  0  0  0
    8.4542   -0.9583    0.0000 C   0  0  0  0  0  0  0  0  0  0  0  0
   11.6792   -2.9417    0.0000 C   0  0  0  0  0  0  0  0  0  0  0  0
    7.2292   -0.9583    0.0000 O   0  0  0  0  0  0  0  0  0  0  0  0
    9.8000   -2.5250    0.0000 O   0  0  0  0  0  0  0  0  0  0  0  0
    5.3917   -1.3167    0.0000 C   0  0  0  0  0  0  0  0  0  0  0  0
    9.0667   -2.0208    0.0000 O   0  0  0  0  0  0  0  0  0  0  0  0
    7.8417   -2.0208    0.0000 O   0  0  0  0  0  0  0  0  0  0  0  0
    6.6125   -1.3125    0.0000 C   0  0  0  0  0  0  0  0  0  0  0  0
   12.2917   -3.3042    0.0000 O   0  0  0  0  0  0  0  0  0  0  0  0
    6.0042   -0.9583    0.0000 C   0  0  0  0  0  0  0  0  0  0  0  0
    8.4542   -0.2500    0.0000 C   0  0  0  0  0  0  0  0  0  0  0  0
    5.3917   -2.0250    0.0000 C   0  0  0  0  0  0  0  0  0  0  0  0
   11.0625   -3.2917    0.0000 O   0  0  0  0  0  0  0  0  0  0  0  0
    6.0042   -2.3792    0.0000 C   0  0  0  0  0  0  0  0  0  0  0  0
    6.6167   -2.0250    0.0000 C   0  0  0  0  0  0  0  0  0  0  0  0
   12.7167   -1.3042    0.0000 C   0  0  0  0  0  0  0  0  0  0  0  0
   12.7167   -2.0167    0.0000 C   0  0  0  0  0  0  0  0  0  0  0  0
    4.7167   -1.0958    0.0000 C   0  0  0  0  0  0  0  0  0  0  0  0
    4.3000   -1.6667    0.0000 C   0  0  0  0  0  0  0  0  0  0  0  0
    4.7167   -2.2417    0.0000 C   0  0  0  0  0  0  0  0  0  0  0  0
    9.0708    0.1042    0.0000 C   0  0  0  0  0  0  0  0  0  0  0  0
    7.8458    0.1000    0.0000 C   0  0  0  0  0  0  0  0  0  0  0  0
    7.8417    0.8083    0.0000 C   0  0  0  0  0  0  0  0  0  0  0  0
    9.0708    0.8125    0.0000 C   0  0  0  0  0  0  0  0  0  0  0  0
    8.4583    1.1667    0.0000 C   0  0  0  0  0  0  0  0  0  0  0  0
   11.0042   -0.6042    0.0000 H   0  0  0  0  0  0  0  0  0  0  0  0
  2  1  1  0
  3  1  1  0
  4  3  1  0
  5  1  1  0
  6  2  1  0
  7  5  1  0
  8  9  1  0
  4  9  1  1
 10 11  1  0
 11  8  1  0
  5 12  1  6
 13 10  1  0
 14  3  2  0
 15 20  1  0
 16  8  2  0
 17 10  2  0
 18 13  1  0
 19 12  1  0
 20 18  2  0
 21 11  1  0
 22 15  2  0
 23 12  2  0
 24 25  2  0
 25 18  1  0
 26  7  1  0
 27  7  1  0
 28 15  1  0
 29 28  1  0
 30 22  1  0
 31 21  2  0
 32 21  1  0
 33 32  2  0
 34 31  1  0
 35 33  1  0
  2 36  1  6
  4  2  1  0
  6  7  1  0
 35 34  2  0
 24 22  1  0
 30 29  1  0
M  END

> <chembl_id>
CHEMBL1596

> <chembl_pref_name>
CARBENICILLIN INDANYL

$$$$

     RDKit          2D

 26 27  0  0  0  0  0  0  0  0999 V2000
   -2.3304   -1.6607    0.0000 Na  0  0  0  0  0 15  0  0  0  0  0  0
    1.5278   -0.3768    0.0000 N   0  0  0  0  0  0  0  0  0  0  0  0
    1.5071    0.4355    0.0000 C   0  0  0  0  0  0  0  0  0  0  0  0
    0.7294   -0.3768    0.0000 C   0  0  0  0  0  0  0  0  0  0  0  0
    0.7259    0.4424    0.0000 C   0  0  0  0  0  0  0  0  0  0  0  0
    2.3159   -0.6257    0.0000 C   0  0  0  0  0  0  0  0  0  0  0  0
    2.2952    0.6913    0.0000 S   0  0  0  0  0  0  0  0  0  0  0  0
    2.7929    0.0484    0.0000 C   0  0  0  0  0  0  0  0  0  0  0  0
    0.1487    0.9816    0.0000 N   0  0  0  0  0  0  0  0  0  0  0  0
   -0.6187    0.7328    0.0000 C   0  0  0  0  0  0  0  0  0  0  0  0
    2.5924   -1.4137    0.0000 C   0  0  0  0  0  0  0  0  0  0  0  0
   -1.2409    1.2823    0.0000 C   0  0  0  0  0  0  0  0  0  0  0  0
    0.1555   -0.9436    0.0000 O   0  0  0  0  0  0  0  0  0  0  0  0
   -0.7777   -0.0553    0.0000 O   0  0  0  0  0  0  0  0  0  0  0  0
    2.0567   -2.0221    0.0000 O   0  0  0  0  0  0  0  0  0  0  0  0
   -2.0289    1.0370    0.0000 C   0  0  0  0  0  0  0  0  0  0  0  0
   -1.0853    2.0808    0.0000 N   0  0  0  0  0  0  0  0  0  0  0  0
    3.4151   -1.5797    0.0000 O   0  0  0  0  0  0  0  0  0  0  0  0
    3.6017   -0.1487    0.0000 C   0  0  0  0  0  0  0  0  0  0  0  0
    3.5706    0.2765    0.0000 C   0  0  0  0  0  0  0  0  0  0  0  0
   -2.6442    1.5865    0.0000 C   0  0  0  0  0  0  0  0  0  0  0  0
   -2.1880    0.2350    0.0000 C   0  0  0  0  0  0  0  0  0  0  0  0
   -3.4288    1.3342    0.0000 C   0  0  0  0  0  0  0  0  0  0  0  0
   -2.9829   -0.0139    0.0000 C   0  0  0  0  0  0  0  0  0  0  0  0
   -3.6051    0.5254    0.0000 C   0  0  0  0  0  0  0  0  0  0  0  0
    1.4828    1.2512    0.0000 H   0  0  0  0  0  0  0  0  0  0  0  0
  3  2  1  0
  4  2  1  0
  5  4  1  0
  6  2  1  0
  7  3  1  0
  8  6  1  0
  5  9  1  1
 10  9  1  0
  6 11  1  6
 12 10  1  0
 13  4  2  0
 14 10  2  0
 15 11  2  0
 16 12  1  0
 12 17  1  1
 18 11  1  0
 19  8  1  0
 20  8  1  0
 21 16  2  0
 22 16  1  0
 23 21  1  0
 24 22  2  0
 25 24  1  0
  3 26  1  6
  7  8  1  0
  3  5  1  0
 23 25  2  0
M  CHG  2   1   1  18  -1
M  END

> <chembl_id>
CHEMBL1200758

> <chembl_pref_name>
AMPICILLIN SODIUM

$$$$

     RDKit          2D

 37 40  0  0  0  0  0  0  0  0999 V2000
   -6.7664    1.3590    0.0000 N   0  0  0  0  0  0  0  0  0  0  0  0
   -7.5914    1.3590    0.0000 C   0  0  0  0  0  0  0  0  0  0  0  0
   -7.5914    0.5340    0.0000 C   0  0  0  0  0  0  0  0  0  0  0  0
   -6.7664    0.5340    0.0000 C   0  0  0  0  0  0  0  0  0  0  0  0
   -5.9818    0.2791    0.0000 S   0  0  0  0  0  0  0  0  0  0  0  0
   -5.4969    0.9465    0.0000 C   0  0  0  0  0  0  0  0  0  0  0  0
   -5.9817    1.6139    0.0000 C   0  0  0  0  0  0  0  0  0  0  0  0
   -8.1747    1.9424    0.0000 O   0  0  0  0  0  0  0  0  0  0  0  0
   -6.7664   -0.2910    0.0000 H   0  0  0  0  0  0  0  0  0  0  0  0
   -5.7268    2.3985    0.0000 C   0  0  0  0  0  0  0  0  0  0  0  0
   -6.2788    3.0116    0.0000 O   0  0  0  0  0  0  0  0  0  0  0  0
   -4.9198    2.5700    0.0000 O   0  0  0  0  0  0  0  0  0  0  0  0
   -8.4164    0.5340    0.0000 N   0  0  0  0  0  0  0  0  0  0  0  0
   -4.9135    1.5299    0.0000 C   0  0  0  0  0  0  0  0  0  0  0  0
   -4.7824    0.5340    0.0000 C   0  0  0  0  0  0  0  0  0  0  0  0
   -9.1308    0.9465    0.0000 C   0  0  0  0  0  0  0  0  0  0  0  0
   -9.8453    0.5340    0.0000 C   0  0  0  0  0  0  0  0  0  0  0  0
   -9.1308    1.7715    0.0000 O   0  0  0  0  0  0  0  0  0  0  0  0
  -10.5598    0.9465    0.0000 N   0  0  0  0  0  0  0  0  0  0  0  0
  -11.2742    0.5340    0.0000 C   0  0  0  0  0  0  0  0  0  0  0  0
   -9.8453   -0.2910    0.0000 C   0  0  0  0  0  0  0  0  0  0  0  0
  -11.9887    0.9465    0.0000 N   0  0  0  0  0  0  0  0  0  0  0  0
  -11.2742   -0.2910    0.0000 O   0  0  0  0  0  0  0  0  0  0  0  0
  -12.2844    1.7167    0.0000 C   0  0  0  0  0  0  0  0  0  0  0  0
  -13.1082    1.6735    0.0000 C   0  0  0  0  0  0  0  0  0  0  0  0
  -13.3217    0.8766    0.0000 N   0  0  0  0  0  0  0  0  0  0  0  0
  -12.6299    0.4273    0.0000 C   0  0  0  0  0  0  0  0  0  0  0  0
  -14.0919    0.5810    0.0000 S   0  0  0  0  0  0  0  0  0  0  0  0
  -14.2210   -0.2339    0.0000 O   0  0  0  0  0  0  0  0  0  0  0  0
  -14.5044    1.2954    0.0000 C   0  0  0  0  0  0  0  0  0  0  0  0
  -13.5086   -0.0024    0.0000 O   0  0  0  0  0  0  0  0  0  0  0  0
  -10.5598   -0.7035    0.0000 C   0  0  0  0  0  0  0  0  0  0  0  0
  -10.5598   -1.5285    0.0000 C   0  0  0  0  0  0  0  0  0  0  0  0
   -9.8453   -1.9410    0.0000 C   0  0  0  0  0  0  0  0  0  0  0  0
   -9.1308   -1.5285    0.0000 C   0  0  0  0  0  0  0  0  0  0  0  0
   -9.1308   -0.7035    0.0000 C   0  0  0  0  0  0  0  0  0  0  0  0
  -12.5867   -0.3965    0.0000 O   0  0  0  0  0  0  0  0  0  0  0  0
  1  2  1  0
  2  3  1  0
  3  4  1  0
  4  5  1  0
  1  4  1  0
  1  7  1  0
  5  6  1  0
  6  7  1  0
  2  8  2  0
  4  9  1  1
  7 10  1  1
 10 11  1  0
 10 12  2  0
  3 13  1  6
  6 14  1  0
  6 15  1  0
 13 16  1  0
 16 17  1  0
 16 18  2  0
 17 19  1  0
 19 20  1  0
 17 21  1  1
 20 22  1  0
 20 23  2  0
 22 24  1  0
 22 27  1  0
 24 25  1  0
 25 26  1  0
 26 27  1  0
 26 28  1  0
 28 29  2  0
 28 30  1  0
 28 31  2  0
 21 32  1  0
 21 36  2  0
 32 33  2  0
 33 34  1  0
 34 35  2  0
 35 36  1  0
 27 37  2  0
M  END

> <chembl_id>
CHEMBL1731

> <chembl_pref_name>
MEZLOCILLIN

$$$$
